Version 4
SHEET 1 880 680
WIRE -112 -48 -144 -48
WIRE 48 -48 -112 -48
WIRE 368 -16 352 -16
WIRE 384 -16 368 -16
WIRE 384 0 384 -16
WIRE 48 48 48 32
WIRE 288 64 272 64
WIRE -144 80 -144 -48
WIRE 272 80 272 64
WIRE 96 96 80 96
WIRE 128 96 96 96
WIRE 240 96 128 96
WIRE 128 112 128 96
WIRE 336 112 304 112
WIRE 384 112 384 80
WIRE 384 112 336 112
WIRE 240 128 224 128
WIRE 272 160 272 144
WIRE 288 160 272 160
WIRE 48 176 48 144
WIRE 48 176 0 176
WIRE -144 192 -144 160
WIRE -144 192 -176 192
WIRE 0 192 0 176
WIRE 48 192 48 176
WIRE 128 192 128 176
WIRE 128 192 48 192
WIRE -176 208 -176 192
WIRE 128 208 128 192
WIRE -144 224 -144 192
WIRE 288 224 272 224
WIRE 48 240 48 192
WIRE 272 240 272 224
WIRE 224 256 224 128
WIRE 240 256 224 256
WIRE 384 272 384 112
WIRE 384 272 304 272
WIRE 96 288 80 288
WIRE 128 288 128 272
WIRE 128 288 96 288
WIRE 240 288 128 288
WIRE 272 320 272 304
WIRE 288 320 272 320
WIRE 176 336 144 336
WIRE 224 336 224 256
WIRE 224 336 176 336
WIRE 48 352 48 336
WIRE 144 352 144 336
WIRE -144 432 -144 304
WIRE -112 432 -144 432
WIRE 48 432 -112 432
WIRE 144 448 144 432
FLAG -176 208 0
FLAG -112 432 vee
FLAG -112 -48 vcc
FLAG 272 64 vee
FLAG 272 224 vee
FLAG 272 160 vcc
FLAG 272 320 vcc
FLAG 0 192 0
FLAG 368 -16 vcc
FLAG 144 448 0
FLAG 336 112 out
FLAG 176 336 in
FLAG 96 96 inp
FLAG 96 288 inm
SYMBOL ZZZ\\Comparator\\lm393 272 112 M180
SYMATTR InstName U1
SYMBOL ZZZ\\Comparator\\lm393 272 272 M180
SYMATTR InstName U2
SYMBOL voltage -144 64 R0
WINDOW 3 36 45 Left 2
SYMATTR Value 9
SYMATTR InstName V1
SYMBOL voltage -144 208 R0
WINDOW 3 36 46 Left 2
SYMATTR Value 9
SYMATTR InstName V2
SYMBOL cap 112 112 R0
SYMATTR InstName C1
SYMATTR Value 100n
SYMBOL cap 112 208 R0
SYMATTR InstName C2
SYMATTR Value 100n
SYMBOL pot 48 96 M0
SYMATTR InstName U3
SYMATTR Value R=1k
SYMBOL pot 48 288 R180
SYMATTR InstName U4
SYMATTR Value R=1k
SYMBOL res 368 -16 R0
SYMATTR InstName R1
SYMATTR Value 4k99
SYMBOL voltage 144 336 R0
WINDOW 0 33 68 Left 2
SYMATTR InstName Vp
SYMATTR Value 1
SYMBOL res 32 -64 R0
SYMATTR InstName R2
SYMATTR Value 22k
SYMBOL res 32 336 R0
WINDOW 0 22 15 Left 2
WINDOW 3 22 89 Left 2
SYMATTR InstName R3
SYMATTR Value 22k
TEXT 256 408 Left 2 !.dc Vp -9 9 0.1
TEXT -224 -104 Left 2 ;Window Comparator for ±200mV set by potentiometers
