Version 4
SHEET 1 1276 680
WIRE 224 32 96 32
WIRE 368 32 304 32
WIRE 96 128 96 32
WIRE 160 128 96 128
WIRE 208 128 160 128
WIRE 368 128 368 32
WIRE 368 128 320 128
WIRE 432 128 368 128
WIRE 464 128 432 128
WIRE 96 176 96 128
WIRE 96 272 96 240
FLAG 96 272 0
FLAG 432 128 output
FLAG 160 128 input
SYMBOL CD4000\\CD40106B 256 80 R0
SYMATTR InstName U1
SYMBOL res 320 16 R90
WINDOW 0 0 56 VBottom 2
WINDOW 3 32 56 VTop 2
SYMATTR InstName R1
SYMATTR Value 100k
SYMBOL cap 112 240 R180
WINDOW 0 24 56 Left 2
WINDOW 3 24 8 Left 2
SYMATTR InstName C1
SYMATTR Value 100n
TEXT 224 216 Left 2 !.inc CD4000.lib
TEXT 224 272 Left 2 !.tran 50m uic
TEXT -56 -88 Left 2 ;LTSPICE: Adding A CD4000 Library (With 40106 Oscillator Example!)
TEXT -56 -48 Left 2 ;https://www.youtube.com/watch?v=4MIDWyavapY
