Version 4
SHEET 1 1384 680
WIRE 656 -528 592 -528
WIRE 768 -528 720 -528
WIRE 592 -464 592 -528
WIRE 640 -464 592 -464
WIRE 768 -464 768 -528
WIRE 768 -464 720 -464
WIRE 192 -400 80 -400
WIRE 368 -400 192 -400
WIRE 400 -400 368 -400
WIRE 512 -400 480 -400
WIRE 80 -384 80 -400
WIRE 192 -384 192 -400
WIRE 672 -352 672 -368
WIRE 368 -336 368 -400
WIRE 416 -336 368 -336
WIRE 512 -336 512 -400
WIRE 512 -336 480 -336
WIRE 592 -336 592 -464
WIRE 640 -336 592 -336
WIRE 1168 -336 1168 -352
WIRE 768 -320 768 -464
WIRE 768 -320 704 -320
WIRE 880 -320 768 -320
WIRE 992 -320 960 -320
WIRE 1056 -320 992 -320
WIRE 1136 -320 1056 -320
WIRE 512 -304 512 -336
WIRE 640 -304 512 -304
WIRE 1312 -304 1200 -304
WIRE 1360 -304 1312 -304
WIRE 992 -288 992 -320
WIRE 1136 -288 1088 -288
WIRE 80 -272 80 -304
WIRE 192 -272 192 -304
WIRE 368 -272 288 -272
WIRE 400 -272 368 -272
WIRE 512 -272 512 -304
WIRE 512 -272 480 -272
WIRE 592 -272 592 -336
WIRE 672 -272 672 -288
WIRE 1168 -256 1168 -272
WIRE 368 -208 368 -272
WIRE 416 -208 368 -208
WIRE 512 -208 512 -272
WIRE 512 -208 480 -208
WIRE 992 -192 992 -224
WIRE 592 -176 592 -192
WIRE 640 -96 368 -96
WIRE 992 -96 720 -96
WIRE 864 -32 800 -32
WIRE 992 -32 992 -96
WIRE 992 -32 928 -32
WIRE -112 -16 -224 -16
WIRE -224 16 -224 -16
WIRE -32 16 -48 16
WIRE 64 16 48 16
WIRE 800 32 800 -32
WIRE 864 32 800 32
WIRE 992 32 992 -32
WIRE 992 32 944 32
WIRE -112 48 -112 -16
WIRE 0 112 0 96
WIRE -224 128 -224 96
WIRE -48 128 -48 16
WIRE -32 128 -48 128
WIRE 432 128 432 112
WIRE 64 144 64 16
WIRE 64 144 32 144
WIRE 112 144 64 144
WIRE 224 144 192 144
WIRE 288 144 288 -272
WIRE 288 144 224 144
WIRE 304 144 288 144
WIRE 400 144 304 144
WIRE 896 144 896 128
WIRE -112 160 -112 128
WIRE -32 160 -112 160
WIRE 496 160 464 160
WIRE 528 160 496 160
WIRE 640 160 608 160
WIRE 672 160 640 160
WIRE 800 160 800 32
WIRE 800 160 752 160
WIRE 864 160 800 160
WIRE -112 176 -112 160
WIRE -112 176 -208 176
WIRE 224 176 224 144
WIRE 368 176 368 -96
WIRE 400 176 368 176
WIRE 992 176 992 32
WIRE 992 176 928 176
WIRE 1040 176 992 176
WIRE 1088 176 1088 -288
WIRE 1088 176 1040 176
WIRE -112 192 -112 176
WIRE 0 192 0 176
WIRE 640 192 640 160
WIRE 864 192 800 192
WIRE -208 208 -208 176
WIRE 432 208 432 192
WIRE 896 224 896 208
WIRE 224 272 224 240
WIRE 640 288 640 256
WIRE -208 304 -208 272
WIRE -112 304 -112 272
WIRE -112 304 -208 304
WIRE 368 320 368 176
WIRE 384 320 368 320
WIRE 496 320 496 160
WIRE 496 320 464 320
WIRE -112 336 -112 304
WIRE 1120 336 1120 304
WIRE 304 384 304 144
WIRE 800 384 800 192
WIRE 800 384 304 384
WIRE 1120 432 1120 416
WIRE 1120 432 1056 432
WIRE 1056 448 1056 432
WIRE 1120 448 1120 432
WIRE 1120 544 1120 528
FLAG 1120 304 vdd1
FLAG 1056 448 0
FLAG 432 112 vdd1
FLAG -224 128 0
FLAG -112 336 0
FLAG 896 128 vdd1
FLAG 1040 176 triang
FLAG 1120 544 vss1
FLAG 432 208 vss1
FLAG 896 224 vss1
FLAG 640 288 0
FLAG 0 96 vdd1
FLAG 0 192 vss1
FLAG 224 272 0
FLAG 672 -368 vdd1
FLAG 672 -272 vss1
FLAG 192 -272 0
FLAG 80 -272 0
FLAG 592 -176 0
FLAG 1168 -256 vdd1
FLAG 1168 -352 vss1
FLAG 992 -192 0
FLAG 1056 -320 sig_offset
FLAG 1312 -304 pwm_out
SYMBOL voltage 1120 320 R0
WINDOW 123 0 0 Left 0
WINDOW 39 0 0 Left 0
WINDOW 0 39 56 Left 2
WINDOW 3 39 80 Left 2
SYMATTR InstName V1
SYMATTR Value 5
SYMBOL voltage -224 0 R0
WINDOW 0 19 16 Left 2
WINDOW 3 18 96 Left 2
WINDOW 123 0 0 Left 0
WINDOW 39 0 0 Left 0
SYMATTR InstName V3
SYMATTR Value 5
SYMBOL res -96 144 R180
WINDOW 0 36 76 Left 2
WINDOW 3 36 40 Left 2
SYMATTR InstName R1
SYMATTR Value 10k
SYMBOL res -96 288 R180
WINDOW 0 -36 66 Left 2
WINDOW 3 -45 38 Left 2
SYMATTR InstName R2
SYMATTR Value 10k
SYMBOL cap -224 208 R0
SYMATTR InstName C1
SYMATTR Value 100n
SYMBOL res 368 336 R270
WINDOW 0 32 56 VTop 2
WINDOW 3 0 56 VBottom 2
SYMATTR InstName R3
SYMATTR Value 1k2
SYMBOL voltage 1120 432 R0
WINDOW 123 0 0 Left 0
WINDOW 39 0 0 Left 0
WINDOW 0 41 50 Left 2
WINDOW 3 40 74 Left 2
SYMATTR InstName V2
SYMATTR Value 0.01
SYMBOL res 512 176 R270
WINDOW 0 32 56 VTop 2
WINDOW 3 0 56 VBottom 2
SYMATTR InstName R4
SYMATTR Value 510
SYMBOL cap 624 192 R0
SYMATTR InstName C2
SYMATTR Value 22p
SYMBOL res 656 176 R270
WINDOW 0 32 56 VTop 2
WINDOW 3 0 56 VBottom 2
SYMATTR InstName R5
SYMATTR Value 510
SYMBOL res 848 48 R270
WINDOW 0 19 94 VTop 2
WINDOW 3 47 -4 VBottom 2
SYMATTR InstName R6
SYMATTR Value 10G
SYMBOL cap 928 -48 R90
WINDOW 0 13 4 VBottom 2
WINDOW 3 -17 68 VTop 2
SYMATTR InstName C3
SYMATTR Value 220p
SYMBOL res 624 -80 R270
WINDOW 0 19 94 VTop 2
WINDOW 3 47 -4 VBottom 2
SYMATTR InstName R7
SYMATTR Value 1k
SYMBOL OpAmps\\AD8066 896 112 R0
WINDOW 0 24 88 Left 2
WINDOW 3 25 114 Left 2
SYMATTR InstName U2
SYMBOL OpAmps\\AD8066 432 96 R0
WINDOW 0 29 1 Left 2
WINDOW 3 15 24 Left 2
SYMATTR InstName U1
SYMBOL OpAmps\\LT1413 0 80 R0
SYMATTR InstName U3
SYMBOL res 64 0 R90
WINDOW 0 -5 71 VBottom 2
WINDOW 3 -17 22 VTop 2
SYMATTR InstName R8
SYMATTR Value 10
SYMBOL res 208 128 R90
WINDOW 0 0 56 VBottom 2
WINDOW 3 32 56 VTop 2
SYMATTR InstName R9
SYMATTR Value 22
SYMBOL cap 240 240 R180
WINDOW 0 24 56 Left 2
WINDOW 3 24 8 Left 2
SYMATTR InstName C4
SYMATTR Value 100n
SYMBOL OpAmps\\AD8066 672 -384 R0
WINDOW 0 38 82 Left 2
WINDOW 3 39 107 Left 2
SYMATTR InstName U4
SYMBOL res 496 -288 R90
WINDOW 0 14 10 VBottom 2
WINDOW 3 -16 110 VTop 2
SYMATTR InstName R10
SYMATTR Value 22k
SYMBOL cap 480 -224 R90
WINDOW 0 13 4 VBottom 2
WINDOW 3 -15 66 VTop 2
SYMATTR InstName C5
SYMATTR Value 10p
SYMBOL res 496 -416 R90
WINDOW 0 14 10 VBottom 2
WINDOW 3 -16 110 VTop 2
SYMATTR InstName R11
SYMATTR Value 22k
SYMBOL cap 480 -352 R90
WINDOW 0 13 4 VBottom 2
WINDOW 3 -15 66 VTop 2
SYMATTR InstName C6
SYMATTR Value 10p
SYMBOL res 176 -400 R0
SYMATTR InstName R12
SYMATTR Value 100k
SYMBOL voltage 80 -400 R0
WINDOW 123 0 0 Left 0
WINDOW 39 0 0 Left 0
SYMATTR InstName vsig
SYMATTR Value 1
SYMBOL res 608 -176 R180
WINDOW 0 36 76 Left 2
WINDOW 3 36 40 Left 2
SYMATTR InstName R13
SYMATTR Value 22k
SYMBOL res 736 -480 R90
WINDOW 0 14 10 VBottom 2
WINDOW 3 -16 110 VTop 2
SYMATTR InstName R14
SYMATTR Value 22k
SYMBOL cap 720 -544 R90
WINDOW 0 13 4 VBottom 2
WINDOW 3 -15 66 VTop 2
SYMATTR InstName C7
SYMATTR Value 10p
SYMBOL OpAmps\\AD8066 1168 -240 M180
WINDOW 0 24 88 Left 2
WINDOW 3 25 114 Left 2
SYMATTR InstName U5
SYMBOL res 976 -336 R90
WINDOW 0 0 56 VBottom 2
WINDOW 3 32 56 VTop 2
SYMATTR InstName R15
SYMATTR Value 681
SYMBOL cap 976 -288 R0
SYMATTR InstName C8
SYMATTR Value 1n
TEXT 88 400 Left 2 !.tran 5u
TEXT -56 504 Left 2 !.meas TRAN time_period TRIG V(vout)=2.5 TD=0 RISE=2 TARG V(vout)=2.5 TD=0 RISE=3
TEXT -56 464 Left 2 !.meas TRAN min_clk_voltage MIN V(vout)
TEXT -56 544 Left 2 !.step param vsig list -1 1
