Version 4
SHEET 1 880 724
WIRE 48 112 48 96
WIRE 16 128 -32 128
WIRE 448 128 416 128
WIRE 560 128 528 128
WIRE 176 144 80 144
WIRE -176 160 -192 160
WIRE -144 160 -176 160
WIRE 0 160 -64 160
WIRE 16 160 0 160
WIRE 176 176 144 176
WIRE 48 192 48 176
WIRE -192 208 -192 160
WIRE 144 208 144 176
WIRE 480 224 480 208
WIRE 0 240 0 160
WIRE 176 240 0 240
WIRE 416 240 416 128
WIRE 416 240 336 240
WIRE 448 240 416 240
WIRE 560 256 560 128
WIRE 560 256 512 256
WIRE 608 256 560 256
WIRE 624 256 608 256
WIRE -32 272 -32 128
WIRE 176 272 -32 272
WIRE 416 272 336 272
WIRE 448 272 416 272
WIRE -32 288 -32 272
WIRE 480 304 480 288
WIRE -192 320 -192 288
WIRE 416 320 416 272
WIRE 144 384 144 368
WIRE 352 384 352 368
WIRE 144 480 144 464
WIRE 144 480 96 480
WIRE 352 480 352 464
WIRE 432 480 352 480
WIRE 96 496 96 480
WIRE 144 496 144 480
WIRE 352 496 352 480
WIRE 432 496 432 480
WIRE 144 592 144 576
WIRE 352 592 352 576
FLAG 96 496 0
FLAG 144 368 vcca
FLAG 48 96 vcca
FLAG 144 208 0
FLAG -192 320 0
FLAG -32 288 0
FLAG 416 320 0
FLAG 432 496 0
FLAG 480 208 vccb
FLAG 608 256 out
FLAG -176 160 in
FLAG 352 368 vccb
FLAG 144 592 veea
FLAG 352 592 veeb
FLAG 48 192 veea
FLAG 480 304 veeb
SYMBOL OpAmps\\LT1413 48 80 R0
WINDOW 3 26 82 Left 2
SYMATTR InstName U2
SYMBOL HCNR200 256 208 R0
SYMATTR InstName U1
SYMBOL voltage 144 368 R0
WINDOW 123 0 0 Left 0
WINDOW 39 0 0 Left 0
SYMATTR InstName V1
SYMATTR Value 5
SYMBOL res -48 144 R90
WINDOW 0 0 56 VBottom 2
WINDOW 3 32 56 VTop 2
SYMATTR InstName R1
SYMATTR Value 1k
SYMBOL voltage -192 192 R0
WINDOW 123 0 0 Left 0
WINDOW 39 0 0 Left 0
WINDOW 3 38 136 Left 2
SYMATTR InstName V5
SYMATTR Value SINE(0 100m 1k)
SYMBOL OpAmps\\LT1413 480 192 R0
WINDOW 3 26 82 Left 2
SYMATTR InstName U3
SYMBOL res 544 112 R90
WINDOW 0 3 101 VBottom 2
WINDOW 3 -22 18 VTop 2
SYMATTR InstName R2
SYMATTR Value 1k
SYMBOL voltage 352 368 R0
WINDOW 123 0 0 Left 0
WINDOW 39 0 0 Left 0
SYMATTR InstName V3
SYMATTR Value 5
SYMBOL voltage 144 480 R0
WINDOW 123 0 0 Left 0
WINDOW 39 0 0 Left 0
SYMATTR InstName V2
SYMATTR Value 5
SYMBOL voltage 352 480 R0
WINDOW 123 0 0 Left 0
WINDOW 39 0 0 Left 0
SYMATTR InstName V4
SYMATTR Value 5
TEXT -192 416 Left 2 !.tran 2m
TEXT -184 -104 Left 4 ;HCNR200
TEXT 96 48 Left 7 ;Failed
TEXT -184 -56 Left 2 ;Basic Isolation Amplifier
