Version 4
SHEET 1 880 680
WIRE 64 -96 32 -96
WIRE 80 -96 64 -96
WIRE 400 -96 384 -96
WIRE 432 -96 400 -96
WIRE 32 -80 32 -96
WIRE 432 -80 432 -96
WIRE 32 16 32 0
WIRE 432 16 432 0
WIRE 80 48 80 -96
WIRE 80 48 64 48
WIRE 112 48 80 48
WIRE 384 48 384 -96
WIRE 384 48 352 48
WIRE 400 48 384 48
WIRE -144 144 -144 128
WIRE 112 144 -16 144
WIRE 512 144 352 144
WIRE 64 176 16 176
WIRE 112 176 64 176
WIRE 400 176 352 176
WIRE 464 176 400 176
WIRE 384 208 352 208
WIRE 464 208 384 208
WIRE 464 224 464 208
WIRE -144 240 -144 224
WIRE 64 240 -144 240
WIRE 112 240 64 240
WIRE 384 240 352 240
WIRE 416 240 384 240
WIRE 64 272 16 272
WIRE 112 272 64 272
WIRE 416 272 416 240
WIRE 416 272 352 272
WIRE 112 304 96 304
WIRE 368 304 352 304
WIRE 464 320 464 304
WIRE 96 336 96 304
WIRE 368 336 368 304
FLAG 400 112 0
FLAG 512 208 0
FLAG 400 176 refout
FLAG 384 208 +in
FLAG 384 240 -in
FLAG 368 336 0
FLAG 464 320 0
FLAG 432 16 0
FLAG 400 -96 vdd2
FLAG 64 112 0
FLAG -16 208 0
FLAG 64 176 refout1
FLAG 64 240 eaout2
FLAG 96 336 0
FLAG 32 16 0
FLAG 64 -96 vdd1
FLAG -144 128 vdd1
FLAG 64 272 eaout
SYMBOL ADuM3190 112 320 R0
SYMATTR InstName U1
SYMBOL cap 384 48 R0
WINDOW 3 27 51 Left 2
SYMATTR Value 1µ
SYMATTR InstName C1
SYMATTR SpiceLine V=16 Irms=0 Rser=0 Lser=0 mfg="Murata" pn="GCM188R71C105MA64" type="X7R"
SYMBOL cap 496 144 R0
WINDOW 3 27 51 Left 2
SYMATTR Value 1µ
SYMATTR InstName C2
SYMATTR SpiceLine V=16 Irms=0 Rser=0 Lser=0 mfg="Murata" pn="GCM188R71C105MA64" type="X7R"
SYMBOL voltage 464 208 R0
WINDOW 0 40 69 Left 2
WINDOW 3 18 126 Left 2
WINDOW 123 18 98 Left 2
WINDOW 39 0 0 Left 0
SYMATTR InstName V1
SYMATTR Value SINE(500m 100m 1k)
SYMBOL voltage 432 -96 R0
WINDOW 123 0 0 Left 0
WINDOW 39 0 0 Left 0
SYMATTR InstName V2
SYMATTR Value 5
SYMBOL cap 80 48 M0
WINDOW 3 27 51 Left 2
SYMATTR Value 1µ
SYMATTR InstName C3
SYMATTR SpiceLine V=16 Irms=0 Rser=0 Lser=0 mfg="Murata" pn="GCM188R71C105MA64" type="X7R"
SYMBOL cap 0 144 M0
WINDOW 3 27 51 Left 2
SYMATTR Value 1µ
SYMATTR InstName C4
SYMATTR SpiceLine V=16 Irms=0 Rser=0 Lser=0 mfg="Murata" pn="GCM188R71C105MA64" type="X7R"
SYMBOL voltage 32 -96 M0
WINDOW 123 0 0 Left 0
WINDOW 39 0 0 Left 0
SYMATTR InstName V4
SYMATTR Value 5
SYMBOL res -160 128 R0
SYMATTR InstName R1
SYMATTR Value 10k
TEXT 144 344 Left 2 !.tran 2m
TEXT 24 -192 Left 4 ;ADuM3190
TEXT 24 -160 Left 2 ;Isolated Amplifier Circuit
