Version 4
SHEET 1 1376 680
WIRE 160 -48 144 -48
WIRE 256 -48 240 -48
WIRE 368 0 352 0
WIRE 448 0 368 0
WIRE 512 0 448 0
WIRE 544 0 512 0
WIRE 656 0 624 0
WIRE 736 0 656 0
WIRE 752 0 736 0
WIRE 784 0 752 0
WIRE 1104 0 1040 0
WIRE 1136 0 1104 0
WIRE 1184 0 1136 0
WIRE 352 32 352 0
WIRE 448 32 448 0
WIRE 144 48 144 -48
WIRE 144 48 96 48
WIRE 176 48 144 48
WIRE 256 48 256 -48
WIRE 256 48 240 48
WIRE 272 48 256 48
WIRE 96 96 96 48
WIRE 512 96 512 0
WIRE 656 96 656 0
WIRE 736 96 736 0
WIRE 1104 96 1104 0
WIRE 1184 96 1184 0
WIRE 272 112 272 48
WIRE 352 112 352 96
WIRE 352 112 272 112
WIRE 448 144 448 96
WIRE 448 144 272 144
WIRE 352 160 352 112
WIRE 448 160 448 144
WIRE 96 224 96 176
WIRE 160 224 96 224
WIRE 272 224 272 144
WIRE 272 224 240 224
WIRE 352 256 352 224
WIRE 448 256 448 224
WIRE 448 256 352 256
WIRE 512 256 512 160
WIRE 512 256 448 256
WIRE 656 256 656 160
WIRE 656 256 512 256
WIRE 736 256 736 160
WIRE 736 256 656 256
WIRE 912 256 912 96
WIRE 912 256 736 256
WIRE 1104 256 1104 160
WIRE 1104 256 912 256
WIRE 1184 256 1184 176
WIRE 1184 256 1104 256
WIRE 352 288 352 256
FLAG 352 288 0
FLAG 752 0 rin
FLAG 1136 0 rout
FLAG 368 0 recout
SYMBOL voltage 96 80 R0
WINDOW 3 10 96 Left 1
WINDOW 123 0 0 Left 0
WINDOW 39 0 0 Left 0
SYMATTR InstName V1
SYMATTR Value SINE(0 318 50)
SYMBOL cap 240 32 R90
WINDOW 0 0 32 VBottom 2
WINDOW 3 32 32 VTop 1
SYMATTR InstName C1
SYMATTR Value 1µ
SYMATTR SpiceLine V=400 Irms=0 Rser=0.0276 Lser=13.623n mfg="Würth Elektronik" pn="890283327004CS WCAP-FTBP 27.5 x 31 x 19 x 10" type="Box"
SYMBOL res 256 -64 R90
WINDOW 0 0 56 VBottom 2
WINDOW 3 32 56 VTop 1
SYMATTR InstName R1
SYMATTR Value 1Meg
SYMATTR SpiceLine pwr=0.25
SYMBOL res 256 208 R90
WINDOW 0 12 16 VBottom 2
WINDOW 3 32 56 VTop 1
SYMATTR InstName R2
SYMATTR Value 100
SYMATTR SpiceLine pwr=3
SYMBOL diode 368 96 R180
WINDOW 0 24 64 Left 2
WINDOW 3 24 0 Left 1
SYMATTR InstName D1
SYMATTR Value 1N4007
SYMBOL diode 368 224 R180
WINDOW 0 24 64 Left 2
WINDOW 3 24 0 Left 1
SYMATTR InstName D2
SYMATTR Value 1N4007
SYMBOL diode 464 96 R180
WINDOW 0 24 64 Left 2
WINDOW 3 24 0 Left 1
SYMATTR InstName D3
SYMATTR Value 1N4007
SYMBOL diode 464 224 R180
WINDOW 0 24 64 Left 2
WINDOW 3 24 0 Left 1
SYMATTR InstName D4
SYMATTR Value 1N4007
SYMBOL polcap 496 96 R0
WINDOW 3 24 56 Left 1
SYMATTR InstName C2
SYMATTR Value 100µ
SYMATTR Description Capacitor
SYMATTR Type cap
SYMATTR SpiceLine V=50 Irms=160m Rser=0.189 Lser=5.729n mfg="Würth Elektronik" pn="865230657013 WCAP-AS5H 10x10,5" type="Al electrolytic"
SYMBOL res 640 -16 R90
WINDOW 0 12 16 VBottom 2
WINDOW 3 32 56 VTop 1
SYMATTR InstName R3
SYMATTR Value 100
SYMATTR SpiceLine pwr=3
SYMBOL PowerProducts\\LT1086-5 912 0 R0
SYMATTR InstName U1
SYMBOL polcap 720 96 R0
WINDOW 3 24 56 Left 1
SYMATTR InstName C3
SYMATTR Value 10µ
SYMATTR Description Capacitor
SYMATTR Type cap
SYMATTR SpiceLine V=50 Irms=30m Rser=1.1585 Lser=2.253n mfg="Würth Elektronik" pn="865230643009 WCAP-AS5H 6,3x5,5" type="Al electrolytic"
SYMBOL polcap 1088 96 R0
WINDOW 3 24 56 Left 1
SYMATTR InstName C4
SYMATTR Value 10µ
SYMATTR Description Capacitor
SYMATTR Type cap
SYMATTR SpiceLine V=50 Irms=30m Rser=1.1585 Lser=2.253n mfg="Würth Elektronik" pn="865230643009 WCAP-AS5H 6,3x5,5" type="Al electrolytic"
SYMBOL current 1184 96 R0
WINDOW 123 0 0 Left 0
WINDOW 39 0 0 Left 0
SYMATTR InstName I1
SYMATTR Value 40m
SYMBOL zener 672 160 R180
WINDOW 0 24 64 Left 2
WINDOW 3 24 0 Left 1
SYMATTR InstName D5
SYMATTR Value PDZV24B
TEXT 400 296 Left 2 !.tran 2
