Version 4
SHEET 1 1236 2280
WIRE -256 112 -256 96
WIRE -256 208 -256 192
WIRE -192 208 -256 208
WIRE -256 224 -256 208
WIRE -192 224 -192 208
WIRE 192 272 144 272
WIRE 304 272 272 272
WIRE -256 320 -256 304
WIRE 144 352 144 272
WIRE 144 352 80 352
WIRE 224 352 224 336
WIRE 144 368 144 352
WIRE 192 368 144 368
WIRE 304 384 304 272
WIRE 304 384 256 384
WIRE 336 384 304 384
WIRE 368 384 336 384
WIRE 192 400 144 400
WIRE 224 432 224 416
WIRE 80 464 80 352
WIRE 144 464 144 400
WIRE 192 624 144 624
WIRE 304 624 272 624
WIRE 16 704 -16 704
WIRE 144 704 144 624
WIRE 144 704 96 704
WIRE 224 704 224 688
WIRE 144 720 144 704
WIRE 192 720 144 720
WIRE 304 736 304 624
WIRE 304 736 256 736
WIRE 336 736 304 736
WIRE 368 736 336 736
WIRE 192 752 144 752
WIRE 224 784 224 768
WIRE -16 864 -16 704
WIRE 144 864 144 752
WIRE 192 1008 144 1008
WIRE 304 1008 272 1008
WIRE 16 1088 -16 1088
WIRE 144 1088 144 1008
WIRE 144 1088 96 1088
WIRE 224 1088 224 1072
WIRE 144 1104 144 1088
WIRE 192 1104 144 1104
WIRE 304 1120 304 1008
WIRE 304 1120 256 1120
WIRE 336 1120 304 1120
WIRE 368 1120 336 1120
WIRE 192 1136 144 1136
WIRE 144 1152 144 1136
WIRE 224 1168 224 1152
WIRE -16 1264 -16 1088
WIRE 144 1264 144 1232
WIRE 192 1408 144 1408
WIRE 304 1408 272 1408
WIRE 16 1488 -16 1488
WIRE 144 1488 144 1408
WIRE 144 1488 96 1488
WIRE 224 1488 224 1472
WIRE 144 1504 144 1488
WIRE 192 1504 144 1504
WIRE 304 1520 304 1408
WIRE 304 1520 256 1520
WIRE 336 1520 304 1520
WIRE 368 1520 336 1520
WIRE 192 1536 144 1536
WIRE 144 1552 144 1536
WIRE 224 1568 224 1552
WIRE 144 1648 144 1632
WIRE -16 1664 -16 1488
WIRE 144 1760 144 1728
WIRE 304 1920 144 1920
WIRE 224 2000 224 1984
WIRE 144 2016 144 1920
WIRE 192 2016 144 2016
WIRE 304 2032 304 1920
WIRE 304 2032 256 2032
WIRE 336 2032 304 2032
WIRE 368 2032 336 2032
WIRE 192 2048 144 2048
WIRE 224 2080 224 2064
WIRE 144 2128 144 2048
FLAG -192 224 0
FLAG -256 96 vcc
FLAG -256 320 vss
FLAG 224 336 vcc
FLAG 224 432 vss
FLAG 144 464 0
FLAG 336 384 out1
FLAG 80 464 0
FLAG 224 688 vcc
FLAG 224 784 vss
FLAG 144 864 0
FLAG 336 736 out2
FLAG -16 864 0
FLAG 224 1072 vcc
FLAG 224 1168 vss
FLAG 144 1264 0
FLAG 336 1120 out3
FLAG -16 1264 0
FLAG 224 1472 vcc
FLAG 224 1568 vss
FLAG 144 1760 0
FLAG 336 1520 out4
FLAG -16 1664 0
FLAG 224 1984 vcc
FLAG 144 2128 0
FLAG 336 2032 out5
FLAG 224 2080 vss
DATAFLAG 368 1120 "$"
DATAFLAG 368 736 "$"
DATAFLAG 368 384 "$"
DATAFLAG 368 1520 "$"
DATAFLAG 368 2032 "$"
DATAFLAG 144 2080 "$"
SYMBOL voltage -256 96 R0
WINDOW 0 37 46 Left 2
WINDOW 3 37 71 Left 2
SYMATTR InstName V1
SYMATTR Value {VPOS}
SYMBOL voltage -256 208 R0
WINDOW 0 38 68 Left 2
WINDOW 3 40 91 Left 2
SYMATTR InstName V2
SYMATTR Value {VNEG}
SYMBOL res 288 256 R90
WINDOW 0 14 18 VBottom 2
WINDOW 3 -13 113 VTop 2
SYMATTR InstName R1
SYMATTR Value 10k
SYMBOL res 288 608 R90
WINDOW 0 14 18 VBottom 2
WINDOW 3 -13 113 VTop 2
SYMATTR InstName R2
SYMATTR Value 10k
SYMBOL res 112 688 R90
WINDOW 0 0 56 VBottom 2
WINDOW 3 32 56 VTop 2
SYMATTR InstName R3
SYMATTR Value 1k
SYMBOL res 288 992 R90
WINDOW 0 14 18 VBottom 2
WINDOW 3 -13 113 VTop 2
SYMATTR InstName R4
SYMATTR Value 10k
SYMBOL res 112 1072 R90
WINDOW 0 0 56 VBottom 2
WINDOW 3 32 56 VTop 2
SYMATTR InstName R5
SYMATTR Value 1k
SYMBOL res 128 1136 R0
SYMATTR InstName R6
SYMATTR Value 910
SYMBOL res 288 1392 R90
WINDOW 0 14 18 VBottom 2
WINDOW 3 -13 113 VTop 2
SYMATTR InstName R7
SYMATTR Value 10k
SYMBOL res 112 1472 R90
WINDOW 0 0 56 VBottom 2
WINDOW 3 32 56 VTop 2
SYMATTR InstName R8
SYMATTR Value 1k
SYMBOL res 128 1632 R0
SYMATTR InstName R9
SYMATTR Value 910
SYMBOL voltage 144 1536 R0
WINDOW 0 32 71 Left 2
SYMATTR InstName V3
SYMATTR Value 10mV
SYMBOL OpAmps\\LT1013 224 1968 R0
SYMATTR InstName U5
SYMBOL OpAmps\\AD8605 224 320 R0
SYMATTR InstName U1
SYMBOL OpAmps\\AD8605 224 672 R0
SYMATTR InstName U2
SYMBOL OpAmps\\AD8605 224 1056 R0
SYMATTR InstName U3
SYMBOL OpAmps\\AD8605 224 1456 R0
SYMATTR InstName U4
TEXT -72 -32 Left 4 ;Reference
TEXT -72 8 Left 2 ;LTspice Simulation : Understanding the impact of Input offset voltage\nhttps://youtu.be/G_qcr3Ll3vM?si=ThdMoR2tqCPWcVLI
TEXT -72 192 Left 2 ;1. A Sign of Offset, Realstic
TEXT 616 736 Left 2 ;.tran 10m
TEXT -72 80 Left 2 ;Input Offset Voltage (Vos) > LT1013AM/AC - 40uV (TYP), 150uV (MAX)
TEXT 240 112 Left 2 ;LT1013C/D/I/M - 60uV (TYP), 300uV (MAX)
TEXT -72 544 Left 2 ;2. Non-inverting amplifier: Effect of Input Bias Current
TEXT 640 376 Left 2 !.op
TEXT -72 928 Left 2 ;3. Non-inverting amplifier with Compensation: ??? (Offset Should be gone)
TEXT 168 1248 Left 2 ;R6 = R4 || R5
TEXT -72 1328 Left 2 ;4. Adding Offset
TEXT 160 1736 Left 2 ;R6 = R4 || R5
TEXT 296 1632 Left 2 ;10mV * 11 (Gain) = 110 mV
TEXT -72 1840 Left 2 ;5 Buffer: No Sign of Offset Voltage, Unrealistic
TEXT -72 152 Left 2 !.param VPOS=2.5 VNEG=2.5
TEXT -48 2176 Left 2 !.meas TRAN Voffset AVG(V(inp)-V(out5))
