Version 4
SHEET 1 880 680
WIRE -16 16 -48 16
WIRE 16 16 -16 16
WIRE -48 48 -48 16
WIRE 224 64 64 64
WIRE 160 96 128 96
WIRE 192 96 160 96
WIRE 128 128 128 96
WIRE -48 144 -48 128
WIRE -48 144 -96 144
WIRE 64 144 64 64
WIRE 96 144 64 144
WIRE -96 160 -96 144
WIRE -48 160 -48 144
WIRE 224 160 224 64
WIRE 224 160 160 160
WIRE 272 160 224 160
WIRE 288 160 272 160
WIRE 96 176 64 176
WIRE 64 208 64 176
WIRE 128 224 128 192
WIRE 160 224 128 224
WIRE 192 224 160 224
WIRE -48 272 -48 240
WIRE -16 272 -48 272
WIRE 16 272 -16 272
FLAG -96 160 0
FLAG -16 272 vss
FLAG -16 16 vcc
FLAG 160 96 vcc
FLAG 160 224 vss
FLAG 64 208 0
FLAG 272 160 vout
SYMBOL OpAmps\\AD8065 128 96 R0
WINDOW 0 22 42 Left 2
WINDOW 3 21 81 Left 2
SYMATTR InstName U1
SYMBOL voltage -48 32 R0
WINDOW 3 28 89 Left 2
SYMATTR Value 5
SYMATTR InstName V1
SYMBOL voltage -48 144 R0
WINDOW 3 28 87 Left 2
SYMATTR Value 5
SYMATTR InstName V2
TEXT -104 304 Left 2 !.noise V(vout) v1 dec 101 1 10Meg
TEXT 344 208 Left 2 ;Vos = 1.5mV (max)
