Version 4
SHEET 1 880 680
WIRE 320 -192 16 -192
WIRE 544 -192 320 -192
WIRE 320 -160 320 -192
WIRE 544 -96 544 -192
WIRE 320 -48 320 -80
WIRE 480 -48 400 -48
WIRE 368 16 144 16
WIRE 544 16 544 0
WIRE 16 32 16 -192
WIRE 224 64 208 64
WIRE 240 64 224 64
WIRE 208 80 208 64
WIRE 144 96 144 16
WIRE 176 96 144 96
WIRE 304 112 240 112
WIRE 368 112 368 16
WIRE 368 112 304 112
WIRE 400 112 400 -48
WIRE 400 112 368 112
WIRE 416 112 400 112
WIRE 544 112 544 96
WIRE 544 112 496 112
WIRE -80 128 -112 128
WIRE -48 128 -80 128
WIRE 16 128 16 112
WIRE 80 128 16 128
WIRE 176 128 80 128
WIRE 544 128 544 112
WIRE 576 128 544 128
WIRE 592 128 576 128
WIRE -112 144 -112 128
WIRE 16 144 16 128
WIRE 544 144 544 128
WIRE 208 160 208 144
WIRE 16 240 16 224
WIRE -112 256 -112 224
WIRE 544 256 544 224
WIRE 16 336 16 320
FLAG -112 256 0
FLAG -80 128 vcc
FLAG 208 160 0
FLAG 224 64 vcc
FLAG 16 336 0
FLAG 304 112 amp_out
FLAG 80 128 amp_in
FLAG 320 -48 0
FLAG 544 256 0
FLAG 576 128 out
SYMBOL voltage -112 128 R0
WINDOW 123 0 0 Left 0
WINDOW 39 0 0 Left 0
SYMATTR InstName V1
SYMATTR Value 28
SYMBOL ZZZ\\OpAmp\\LM358_TI 208 112 R0
SYMATTR InstName U1
SYMBOL voltage 16 224 R0
WINDOW 0 33 38 Left 2
WINDOW 3 -20 147 Left 2
WINDOW 123 0 0 Left 0
WINDOW 39 0 0 Left 0
SYMATTR InstName V2
SYMATTR Value SINE(0 100m 1Meg)
SYMBOL res 512 96 R90
WINDOW 0 0 56 VBottom 2
WINDOW 3 32 56 VTop 2
SYMATTR InstName R2
SYMATTR Value 1k
SYMBOL npn 480 -96 R0
SYMATTR InstName Q1
SYMATTR Value BD441
SYMBOL res 528 0 R0
WINDOW 0 42 27 Left 2
WINDOW 3 39 54 Left 2
SYMATTR InstName R3
SYMATTR Value 0.22
SYMBOL voltage 320 -176 R0
WINDOW 123 0 0 Left 0
WINDOW 39 0 0 Left 0
SYMATTR InstName V3
SYMATTR Value 10
SYMBOL res 528 128 R0
SYMATTR InstName R4
SYMATTR Value 10
SYMBOL res 0 16 R0
SYMATTR InstName R5
SYMATTR Value 1k
SYMBOL res 0 128 R0
SYMATTR InstName R6
SYMATTR Value 1k
TEXT 328 368 Left 2 !.tran 10u
