Version 4
SHEET 1 880 680
WIRE 320 -192 -80 -192
WIRE 544 -192 320 -192
WIRE 320 -160 320 -192
WIRE 176 -144 144 -144
WIRE 208 -144 176 -144
WIRE 144 -128 144 -144
WIRE 544 -96 544 -192
WIRE 320 -48 320 -80
WIRE 480 -48 400 -48
WIRE 144 -32 144 -48
WIRE 32 16 16 16
WIRE 144 16 112 16
WIRE 240 16 144 16
WIRE 368 16 320 16
WIRE 544 16 544 0
WIRE -80 32 -80 -192
WIRE 16 48 16 16
WIRE 208 80 208 -144
WIRE 144 96 144 16
WIRE 176 96 144 96
WIRE 304 112 240 112
WIRE 400 112 400 -48
WIRE 400 112 304 112
WIRE 416 112 400 112
WIRE 544 112 544 96
WIRE 544 112 496 112
WIRE -80 128 -80 112
WIRE 16 128 -80 128
WIRE 176 128 16 128
WIRE 544 128 544 112
WIRE 576 128 544 128
WIRE 592 128 576 128
WIRE -80 144 -80 128
WIRE 208 160 208 144
WIRE 368 176 368 16
WIRE 544 176 544 128
WIRE 544 176 368 176
WIRE 544 192 544 176
WIRE -80 240 -80 224
WIRE 544 304 544 272
WIRE -80 336 -80 320
FLAG 144 -32 0
FLAG 208 160 0
FLAG 176 -144 vcc
FLAG -80 336 0
FLAG 304 112 amp_out
FLAG 16 128 amp_in
FLAG 320 -48 0
FLAG 544 304 0
FLAG 576 128 out
FLAG 16 48 0
SYMBOL voltage 144 -144 R0
WINDOW 123 0 0 Left 0
WINDOW 39 0 0 Left 0
WINDOW 0 -66 48 Left 2
WINDOW 3 -65 75 Left 2
SYMATTR InstName V1
SYMATTR Value 28
SYMBOL ZZZ\\OpAmp\\LM358_TI 208 112 R0
SYMATTR InstName U1
SYMBOL voltage -80 224 R0
WINDOW 0 33 38 Left 2
WINDOW 3 41 66 Left 2
WINDOW 123 0 0 Left 0
WINDOW 39 0 0 Left 0
SYMATTR InstName V2
SYMATTR Value SINE(0 200m 1Meg)
SYMBOL res 512 96 R90
WINDOW 0 0 56 VBottom 2
WINDOW 3 32 56 VTop 2
SYMATTR InstName R2
SYMATTR Value 1k
SYMBOL npn 480 -96 R0
SYMATTR InstName Q1
SYMATTR Value BD441
SYMBOL res 528 0 R0
WINDOW 0 42 27 Left 2
WINDOW 3 39 54 Left 2
SYMATTR InstName R3
SYMATTR Value 0.1
SYMBOL voltage 320 -176 R0
WINDOW 123 0 0 Left 0
WINDOW 39 0 0 Left 0
SYMATTR InstName V3
SYMATTR Value 10
SYMBOL res 528 176 R0
SYMATTR InstName R4
SYMATTR Value 5
SYMBOL res -96 16 R0
SYMATTR InstName R5
SYMATTR Value 1k
SYMBOL res -96 128 R0
SYMATTR InstName R6
SYMATTR Value 1k
SYMBOL res 336 0 R90
WINDOW 0 0 56 VBottom 2
WINDOW 3 32 56 VTop 2
SYMATTR InstName R1
SYMATTR Value 6k
SYMBOL res 128 0 R90
WINDOW 0 0 56 VBottom 2
WINDOW 3 32 56 VTop 2
SYMATTR InstName R7
SYMATTR Value 10k
TEXT 360 280 Left 2 !.tran 10u
TEXT -88 -248 Left 2 ;Adding AC and DC voltages with high current
