Version 4
SHEET 1 1368 892
WIRE -464 -304 -512 -304
WIRE -368 -304 -400 -304
WIRE -144 -304 -192 -304
WIRE -48 -304 -80 -304
WIRE 256 -304 224 -304
WIRE 272 -304 256 -304
WIRE 224 -272 224 -304
WIRE 144 -256 128 -256
WIRE 192 -256 144 -256
WIRE -608 -240 -624 -240
WIRE -512 -240 -512 -304
WIRE -512 -240 -528 -240
WIRE -496 -240 -512 -240
WIRE -464 -240 -496 -240
WIRE -368 -240 -368 -304
WIRE -368 -240 -384 -240
WIRE -288 -240 -304 -240
WIRE -192 -240 -192 -304
WIRE -192 -240 -208 -240
WIRE -176 -240 -192 -240
WIRE -144 -240 -176 -240
WIRE -48 -240 -48 -304
WIRE -48 -240 -64 -240
WIRE 304 -240 256 -240
WIRE 352 -240 304 -240
WIRE 464 -240 432 -240
WIRE -624 -224 -624 -240
WIRE -304 -224 -304 -240
WIRE 192 -224 160 -224
WIRE -432 -192 -448 -192
WIRE -416 -192 -432 -192
WIRE -112 -192 -128 -192
WIRE -96 -192 -112 -192
WIRE 224 -192 224 -208
WIRE 256 -192 224 -192
WIRE 272 -192 256 -192
WIRE -448 -176 -448 -192
WIRE -128 -176 -128 -192
WIRE -496 -160 -496 -240
WIRE -480 -160 -496 -160
WIRE -176 -160 -176 -240
WIRE -160 -160 -176 -160
WIRE 160 -160 160 -224
WIRE 272 -160 160 -160
WIRE 304 -160 304 -240
WIRE 304 -160 272 -160
WIRE -368 -144 -368 -240
WIRE -368 -144 -416 -144
WIRE -304 -144 -368 -144
WIRE -48 -144 -48 -240
WIRE -48 -144 -96 -144
WIRE 128 -144 128 -256
WIRE 128 -144 -48 -144
WIRE -640 -128 -672 -128
WIRE -560 -128 -640 -128
WIRE -480 -128 -560 -128
WIRE -304 -128 -304 -144
WIRE -240 -128 -304 -128
WIRE -160 -128 -240 -128
WIRE 272 -128 160 -128
WIRE 304 -128 272 -128
WIRE 464 -128 464 -240
WIRE 544 -128 464 -128
WIRE 752 -128 544 -128
WIRE -672 -112 -672 -128
WIRE -560 -112 -560 -128
WIRE -240 -112 -240 -128
WIRE 256 -96 224 -96
WIRE 272 -96 256 -96
WIRE -448 -80 -448 -112
WIRE -416 -80 -448 -80
WIRE -400 -80 -416 -80
WIRE -128 -80 -128 -112
WIRE -96 -80 -128 -80
WIRE -80 -80 -96 -80
WIRE 224 -80 224 -96
WIRE 928 -80 912 -80
WIRE 944 -80 928 -80
WIRE 160 -64 160 -128
WIRE 192 -64 160 -64
WIRE 656 -64 640 -64
WIRE 672 -64 656 -64
WIRE 304 -48 304 -128
WIRE 304 -48 256 -48
WIRE 352 -48 304 -48
WIRE 464 -48 464 -128
WIRE 464 -48 432 -48
WIRE 640 -48 640 -64
WIRE 912 -48 912 -80
WIRE 128 -32 128 -144
WIRE 192 -32 128 -32
WIRE -672 -16 -672 -32
WIRE -560 -16 -560 -32
WIRE -240 -16 -240 -32
WIRE 224 16 224 -16
WIRE 256 16 224 16
WIRE 272 16 256 16
WIRE 752 16 752 -128
WIRE 816 16 752 16
WIRE 1040 16 1008 16
WIRE 1168 16 1040 16
WIRE 1168 32 1168 16
WIRE 640 48 640 32
WIRE 768 80 752 80
WIRE 816 80 768 80
WIRE -64 96 -96 96
WIRE -48 96 -64 96
WIRE -48 112 -48 96
WIRE 1168 128 1168 112
WIRE 640 144 640 112
WIRE 752 144 752 80
WIRE 752 144 640 144
WIRE 640 160 640 144
WIRE -256 192 -288 192
WIRE -240 192 -256 192
WIRE -48 208 -48 192
WIRE -288 224 -288 192
WIRE 192 224 176 224
WIRE 864 224 864 192
WIRE 896 224 864 224
WIRE 912 224 896 224
WIRE 960 224 960 192
WIRE 176 240 176 224
WIRE 0 256 -16 256
WIRE 32 256 0 256
WIRE 144 256 32 256
WIRE 32 272 32 256
WIRE 288 272 208 272
WIRE 448 272 288 272
WIRE 640 272 640 240
WIRE 640 272 448 272
WIRE 128 288 128 -32
WIRE 144 288 128 288
WIRE 176 320 176 304
WIRE 192 320 176 320
WIRE -288 336 -288 304
WIRE -288 336 -320 336
WIRE -48 336 -48 304
WIRE -48 336 -96 336
WIRE -320 352 -320 336
WIRE -96 352 -96 336
WIRE -48 352 -48 336
WIRE 32 352 32 336
WIRE 32 352 -48 352
WIRE -288 368 -288 336
WIRE 32 368 32 352
WIRE 192 384 176 384
WIRE 512 384 496 384
WIRE 544 384 512 384
WIRE 752 384 752 144
WIRE 816 384 752 384
WIRE 912 384 816 384
WIRE -48 400 -48 352
WIRE 176 400 176 384
WIRE 544 400 544 384
WIRE 912 400 912 384
WIRE 128 416 128 288
WIRE 144 416 128 416
WIRE 752 416 752 384
WIRE 816 416 816 384
WIRE 288 432 288 272
WIRE 288 432 208 432
WIRE 0 448 -16 448
WIRE 32 448 32 432
WIRE 32 448 0 448
WIRE 144 448 32 448
WIRE -288 480 -288 448
WIRE -256 480 -288 480
WIRE -240 480 -256 480
WIRE 176 480 176 464
WIRE 192 480 176 480
WIRE 544 496 544 480
WIRE 704 496 544 496
WIRE 912 496 912 480
WIRE -48 512 -48 496
WIRE 544 512 544 496
WIRE 752 544 752 512
WIRE 816 544 816 480
WIRE 912 592 912 560
WIRE 944 592 912 592
WIRE 960 592 944 592
WIRE -80 608 -112 608
WIRE -48 608 -48 592
WIRE -48 608 -80 608
WIRE 512 608 496 608
WIRE 544 608 544 592
WIRE 544 608 512 608
FLAG -320 352 0
FLAG -256 192 vcc
FLAG -256 480 vee
FLAG 256 16 vee
FLAG 256 -96 vcc
FLAG -672 -16 0
FLAG 256 -304 vee
FLAG 256 -192 vcc
FLAG 272 -160 out1
FLAG 272 -128 out2
FLAG -560 -16 0
FLAG -624 -224 0
FLAG -432 -192 vcc
FLAG -416 -80 vee
FLAG 176 224 vee
FLAG 176 384 vee
FLAG 176 320 vcc
FLAG 176 480 vcc
FLAG -96 352 0
FLAG 0 256 inp
FLAG 0 448 inm
FLAG -64 96 vcc
FLAG -80 608 vee
FLAG 896 224 vee
FLAG 960 224 0
FLAG 512 384 vcc
FLAG 512 608 vee
FLAG 752 544 0
FLAG 816 544 0
FLAG 928 -80 vcc
FLAG 656 -64 vcc
FLAG 1040 16 out
FLAG 544 -128 buffer
FLAG 144 -256 gain
FLAG -640 -128 in
FLAG 448 272 comparator
FLAG 768 80 enable
FLAG 944 592 vee
FLAG 1168 128 0
FLAG -240 -16 0
FLAG -112 -192 vcc
FLAG -96 -80 vee
FLAG -304 -224 0
SYMBOL voltage -288 208 R0
WINDOW 3 36 45 Left 2
SYMATTR Value 9
SYMATTR InstName V1
SYMBOL voltage -288 352 R0
WINDOW 3 36 46 Left 2
SYMATTR Value 9
SYMATTR InstName V2
SYMBOL res 448 -64 R90
WINDOW 0 0 56 VBottom 2
WINDOW 3 32 56 VTop 2
SYMATTR InstName R5
SYMATTR Value 100
SYMBOL voltage -672 -128 R0
WINDOW 0 35 64 Left 2
SYMATTR InstName VIN
SYMATTR Value AC 1
SYMBOL res 448 -224 M270
WINDOW 0 32 56 VTop 2
WINDOW 3 0 56 VBottom 2
SYMATTR InstName R4
SYMATTR Value 100
SYMBOL res -576 -128 R0
SYMATTR InstName R2
SYMATTR Value 50
SYMBOL res -512 -256 R90
WINDOW 0 15 20 VBottom 2
WINDOW 3 -14 105 VTop 2
SYMATTR InstName R1
SYMATTR Value 220
SYMBOL res -368 -256 R90
WINDOW 0 15 20 VBottom 2
WINDOW 3 -14 105 VTop 2
SYMATTR InstName R3
SYMATTR Value 750
SYMBOL cap -400 -320 R90
WINDOW 0 16 7 VBottom 2
WINDOW 3 -14 63 VTop 2
SYMATTR InstName C4
SYMATTR Value 68p
SYMBOL ZZZ\\Comparator\\lm393 176 272 M180
WINDOW 0 5 -23 Left 2
SYMATTR InstName U3A
SYMBOL ZZZ\\Comparator\\lm393 176 432 M180
WINDOW 0 7 -23 Left 2
SYMATTR InstName U3B
SYMBOL cap 16 272 R0
SYMATTR InstName C11
SYMATTR Value 100n
SYMBOL cap 16 368 R0
SYMATTR InstName C12
SYMATTR Value 100n
SYMBOL pot -48 256 M0
SYMATTR InstName RV1
SYMATTR Value R=1k
SYMBOL pot -48 448 R180
SYMATTR InstName RV2
SYMATTR Value R=1k
SYMBOL res -64 96 R0
SYMATTR InstName R17
SYMATTR Value 22k
SYMBOL res -64 496 R0
WINDOW 0 22 15 Left 2
WINDOW 3 22 89 Left 2
SYMATTR InstName R18
SYMATTR Value 22k
SYMBOL Switches\\ADG1401 912 64 R0
SYMATTR InstName U4
SYMBOL res 624 144 R0
SYMATTR InstName R7
SYMATTR Value 4k99
SYMBOL res 624 -64 R0
SYMATTR InstName R6
SYMATTR Value 10k
SYMBOL LED 624 48 R0
WINDOW 3 24 69 Left 1
SYMATTR Value LedGreen
SYMATTR InstName D1
SYMBOL ZZZ\\MOS\\BSS138_FAI 704 416 R0
WINDOW 3 -58 103 Left 1
WINDOW 0 -33 61 Left 2
SYMATTR InstName Q1
SYMBOL res 528 384 R0
SYMATTR InstName R8
SYMATTR Value 10K
SYMBOL res 528 496 R0
SYMATTR InstName R10
SYMATTR Value 10K
SYMBOL diode 832 480 R180
WINDOW 0 24 64 Left 2
WINDOW 3 24 0 Left 2
SYMATTR InstName D3
SYMBOL OPA161x 320 -256 M180
WINDOW 0 -57 -18 Bottom 2
WINDOW 3 -30 -10 Top 2
SYMATTR InstName U2B
SYMBOL OPA161x 320 -32 R0
WINDOW 0 -62 -25 Bottom 2
WINDOW 3 -25 -10 Top 2
SYMATTR InstName U2A
SYMBOL res 896 384 R0
SYMATTR InstName R9
SYMATTR Value 2k
SYMBOL cap 896 496 R0
SYMATTR InstName C6
SYMATTR Value 100n
SYMBOL OpAmps\\AD8676 -448 -208 R0
WINDOW 3 24 85 Left 2
SYMATTR InstName U1
SYMBOL res 1152 16 R0
SYMATTR InstName R11
SYMATTR Value 50
SYMBOL res -256 -128 R0
SYMATTR InstName R22
SYMATTR Value 50
SYMBOL res -192 -256 R90
WINDOW 0 15 20 VBottom 2
WINDOW 3 -14 105 VTop 2
SYMATTR InstName R21
SYMATTR Value 220
SYMBOL res -48 -256 R90
WINDOW 0 15 20 VBottom 2
WINDOW 3 -14 105 VTop 2
SYMATTR InstName R20
SYMATTR Value 750
SYMBOL cap -80 -320 R90
WINDOW 0 16 7 VBottom 2
WINDOW 3 -14 63 VTop 2
SYMATTR InstName C20
SYMATTR Value 68p
SYMBOL OpAmps\\AD8676 -128 -208 R0
WINDOW 3 24 85 Left 2
SYMATTR InstName U20
TEXT 552 -304 Left 2 !.ac dec 101 1 10Meg
TEXT -720 -328 Left 2 ;Gain
TEXT 112 -328 Left 2 ;Buffer
TEXT 80 616 Left 2 ;Window Comparator
TEXT 608 616 Left 2 ;Power Failure Protecton
TEXT 616 -184 Left 2 ;Switch
TEXT -360 88 Left 2 ;Batteries
TEXT -736 -568 Left 2 ;Reference: \nThe Low Frequency, Low Noise Amplifier Board\nhttps://www.limpkin.fr/index.php?post/2022/09/20/The-Low-Noise-Amplifier-Board\nElectronics Tutorial - Building a Low noise signal amplifier Part 2/3 - LTspice Simulation\nhttps://youtu.be/Car8hk_ubJs?si=EayGGO5zsxbXB_TW
TEXT -728 -392 Left 2 ;Gain = 20 dB, BW = 342 KHz (1dB), 640 KHz (3dB)
RECTANGLE Normal -736 32 80 -352 1
RECTANGLE Normal 96 32 496 -352 1
RECTANGLE Normal 336 640 -160 64 1
RECTANGLE Normal 1024 640 464 336 1
RECTANGLE Normal 592 304 1120 -208 1
RECTANGLE Normal -384 528 -192 64 1
