Version 4
SHEET 1 1368 992
WIRE -464 -304 -512 -304
WIRE -368 -304 -400 -304
WIRE -144 -304 -192 -304
WIRE -48 -304 -80 -304
WIRE 256 -304 224 -304
WIRE 272 -304 256 -304
WIRE 224 -272 224 -304
WIRE 144 -256 128 -256
WIRE 192 -256 144 -256
WIRE -608 -240 -624 -240
WIRE -512 -240 -512 -304
WIRE -512 -240 -528 -240
WIRE -496 -240 -512 -240
WIRE -464 -240 -496 -240
WIRE -368 -240 -368 -304
WIRE -368 -240 -384 -240
WIRE -288 -240 -304 -240
WIRE -192 -240 -192 -304
WIRE -192 -240 -208 -240
WIRE -176 -240 -192 -240
WIRE -144 -240 -176 -240
WIRE -48 -240 -48 -304
WIRE -48 -240 -64 -240
WIRE 304 -240 256 -240
WIRE 352 -240 304 -240
WIRE 464 -240 432 -240
WIRE -624 -224 -624 -240
WIRE -304 -224 -304 -240
WIRE 192 -224 160 -224
WIRE -432 -192 -448 -192
WIRE -416 -192 -432 -192
WIRE -112 -192 -128 -192
WIRE -96 -192 -112 -192
WIRE 224 -192 224 -208
WIRE 256 -192 224 -192
WIRE 272 -192 256 -192
WIRE -448 -176 -448 -192
WIRE -128 -176 -128 -192
WIRE -496 -160 -496 -240
WIRE -480 -160 -496 -160
WIRE -176 -160 -176 -240
WIRE -160 -160 -176 -160
WIRE 160 -160 160 -224
WIRE 272 -160 160 -160
WIRE 304 -160 304 -240
WIRE 304 -160 272 -160
WIRE -368 -144 -368 -240
WIRE -368 -144 -416 -144
WIRE -304 -144 -368 -144
WIRE -48 -144 -48 -240
WIRE -48 -144 -96 -144
WIRE 128 -144 128 -256
WIRE 128 -144 -48 -144
WIRE -640 -128 -672 -128
WIRE -560 -128 -640 -128
WIRE -480 -128 -560 -128
WIRE -304 -128 -304 -144
WIRE -240 -128 -304 -128
WIRE -160 -128 -240 -128
WIRE 272 -128 160 -128
WIRE 304 -128 272 -128
WIRE 464 -128 464 -240
WIRE 544 -128 464 -128
WIRE 576 -128 544 -128
WIRE -672 -112 -672 -128
WIRE -560 -112 -560 -128
WIRE -240 -112 -240 -128
WIRE 576 -112 576 -128
WIRE 256 -96 224 -96
WIRE 272 -96 256 -96
WIRE -448 -80 -448 -112
WIRE -416 -80 -448 -80
WIRE -400 -80 -416 -80
WIRE -128 -80 -128 -112
WIRE -96 -80 -128 -80
WIRE -80 -80 -96 -80
WIRE 224 -80 224 -96
WIRE 160 -64 160 -128
WIRE 192 -64 160 -64
WIRE 304 -48 304 -128
WIRE 304 -48 256 -48
WIRE 352 -48 304 -48
WIRE 464 -48 464 -128
WIRE 464 -48 432 -48
WIRE 128 -32 128 -144
WIRE 192 -32 128 -32
WIRE -672 -16 -672 -32
WIRE -560 -16 -560 -32
WIRE -240 -16 -240 -32
WIRE 576 -16 576 -32
WIRE 224 16 224 -16
WIRE 256 16 224 16
WIRE 272 16 256 16
WIRE -672 96 -688 96
WIRE -416 96 -432 96
WIRE -128 96 -144 96
WIRE -688 128 -688 96
WIRE -672 128 -688 128
WIRE -432 128 -432 96
WIRE -416 128 -432 128
WIRE -144 128 -144 96
WIRE -128 128 -144 128
WIRE -688 160 -688 128
WIRE -640 160 -640 144
WIRE -640 160 -688 160
WIRE -432 160 -432 128
WIRE -384 160 -384 144
WIRE -384 160 -432 160
WIRE -144 160 -144 128
WIRE -96 160 -96 144
WIRE -96 160 -144 160
WIRE -688 192 -688 160
WIRE -432 192 -432 160
WIRE -144 192 -144 160
WIRE 432 192 400 192
WIRE 448 192 432 192
WIRE 400 224 400 192
WIRE 400 336 400 304
WIRE 400 336 368 336
WIRE 368 352 368 336
WIRE 400 368 400 336
WIRE 400 480 400 448
WIRE 432 480 400 480
WIRE 448 480 432 480
FLAG 368 352 0
FLAG 432 192 vcc
FLAG 432 480 vee
FLAG 256 16 vee
FLAG 256 -96 vcc
FLAG -672 -16 0
FLAG 256 -304 vee
FLAG 256 -192 vcc
FLAG 272 -160 out1
FLAG 272 -128 out2
FLAG -560 -16 0
FLAG -624 -224 0
FLAG -432 -192 vcc
FLAG -416 -80 vee
FLAG 544 -128 buffer
FLAG 144 -256 gain
FLAG -640 -128 in
FLAG 576 -16 0
FLAG -240 -16 0
FLAG -112 -192 vcc
FLAG -96 -80 vee
FLAG -304 -224 0
FLAG -688 192 0
FLAG -144 192 0
FLAG -432 192 0
SYMBOL voltage 400 208 R0
WINDOW 3 36 45 Left 2
SYMATTR Value 9
SYMATTR InstName V1
SYMBOL voltage 400 352 R0
WINDOW 3 36 46 Left 2
SYMATTR Value 9
SYMATTR InstName V2
SYMBOL res 448 -64 R90
WINDOW 0 0 56 VBottom 2
WINDOW 3 32 56 VTop 2
SYMATTR InstName R5
SYMATTR Value 100
SYMBOL voltage -672 -128 R0
WINDOW 0 35 64 Left 2
SYMATTR InstName VIN
SYMATTR Value AC 1
SYMBOL res 448 -224 M270
WINDOW 0 32 56 VTop 2
WINDOW 3 0 56 VBottom 2
SYMATTR InstName R4
SYMATTR Value 100
SYMBOL res -576 -128 R0
SYMATTR InstName R2
SYMATTR Value 50
SYMBOL res -512 -256 R90
WINDOW 0 15 20 VBottom 2
WINDOW 3 -14 105 VTop 2
SYMATTR InstName R1
SYMATTR Value 300
SYMBOL res -368 -256 R90
WINDOW 0 15 20 VBottom 2
WINDOW 3 -14 105 VTop 2
SYMATTR InstName R3
SYMATTR Value 2k7
SYMBOL cap -400 -320 R90
WINDOW 0 16 7 VBottom 2
WINDOW 3 -14 63 VTop 2
SYMATTR InstName C4
SYMATTR Value {CF}
SYMBOL OPA161x 320 -256 M180
WINDOW 0 -57 -18 Bottom 2
WINDOW 3 -30 -10 Top 2
SYMATTR InstName U2B
SYMBOL OPA161x 320 -32 R0
WINDOW 0 -62 -25 Bottom 2
WINDOW 3 -25 -10 Top 2
SYMATTR InstName U2A
SYMBOL res 560 -128 R0
SYMATTR InstName R11
SYMATTR Value 50
SYMBOL res -256 -128 R0
SYMATTR InstName R22
SYMATTR Value 50
SYMBOL res -192 -256 R90
WINDOW 0 15 20 VBottom 2
WINDOW 3 -14 105 VTop 2
SYMATTR InstName R21
SYMATTR Value 300
SYMBOL res -48 -256 R90
WINDOW 0 15 20 VBottom 2
WINDOW 3 -14 105 VTop 2
SYMATTR InstName R20
SYMATTR Value 2k7
SYMBOL cap -80 -320 R90
WINDOW 0 16 7 VBottom 2
WINDOW 3 -14 63 VTop 2
SYMATTR InstName C20
SYMATTR Value {CF}
SYMBOL ZZZ\\OpAmp\\Ad8014 -640 48 R0
SYMATTR InstName U10
SYMBOL AD8001AR -96 112 R0
WINDOW 3 87 10 Top 2
SYMATTR InstName U11
SYMBOL AD8009an -384 112 R0
SYMATTR InstName U12
SYMBOL AD8001AR -448 -144 R0
WINDOW 0 44 -10 Bottom 2
WINDOW 3 79 9 Top 2
SYMATTR InstName U1A
SYMBOL AD8001AR -128 -144 R0
WINDOW 0 44 -10 Bottom 2
WINDOW 3 79 9 Top 2
SYMATTR InstName U1B
TEXT 224 -392 Left 2 !.ac dec 101 1 100Meg
TEXT -720 -328 Left 2 ;Gain
TEXT 112 -328 Left 2 ;Buffer
TEXT 328 88 Left 2 ;Batteries
TEXT -728 -528 Left 2 ;Reference: \nThe Low Frequency, Low Noise Amplifier Board\nhttps://www.limpkin.fr/index.php?post/2022/09/20/The-Low-Noise-Amplifier-Board
TEXT -632 168 Left 2 ;Afranik
TEXT -72 160 Left 2 ;Skytech
TEXT -704 232 Left 2 ;Max Rf = 2k7\nCF = 1pF\nGain = 34 dB\nBW = 5.3 MHz (1dB)\nBW = 10 MHz (3dB)
TEXT -152 232 Left 2 ;Max Rf = 2k7\nCF = 1pF\nGain = 33.7 dB\nBW = 14.6 MHz (1dB)\nBW = 21 MHz (3dB)
TEXT -728 -376 Left 2 !.step param CF list 5p 1p
TEXT -448 232 Left 2 ;Max Rf = 2k7\nCF = 1pF\nGain = 33.8 dB\nBW = 11.6 MHz (1dB)\nBW = 17.8 MHz (3dB)
TEXT -368 160 Left 2 ;Paya
TEXT -896 112 Left 4 ;All models may not be useable because of high Offset voltage
RECTANGLE Normal -736 32 80 -352 1
RECTANGLE Normal 96 32 496 -352 1
RECTANGLE Normal 304 528 496 64 1
