Version 4
SHEET 1 880 680
WIRE -320 -224 -384 -224
WIRE -192 -224 -320 -224
WIRE 0 -224 -192 -224
WIRE 48 -224 0 -224
WIRE 192 -224 144 -224
WIRE 240 -224 192 -224
WIRE 304 -224 240 -224
WIRE 448 -224 400 -224
WIRE 544 -224 448 -224
WIRE 608 -224 544 -224
WIRE 656 -224 608 -224
WIRE 544 -208 544 -224
WIRE 656 -192 656 -224
WIRE -192 -160 -192 -224
WIRE -384 -144 -384 -224
WIRE 128 -144 128 -176
WIRE 192 -144 192 -224
WIRE 240 -144 192 -144
WIRE 320 -144 320 -176
WIRE 320 -144 304 -144
WIRE 544 -112 544 -144
WIRE 656 -80 656 -112
WIRE -384 -32 -384 -64
WIRE 128 -32 128 -64
WIRE 128 -32 -96 -32
WIRE 272 -32 128 -32
WIRE 320 -32 320 -144
WIRE 320 -32 272 -32
WIRE 448 0 448 -224
WIRE 544 0 448 0
WIRE 0 16 0 -224
WIRE 64 16 0 16
WIRE 64 48 64 16
WIRE 192 48 192 -144
WIRE 320 48 320 -32
WIRE 448 48 448 0
WIRE -96 128 -96 112
WIRE 544 144 544 0
WIRE -288 176 -352 176
WIRE -80 176 -288 176
WIRE 16 176 -80 176
WIRE -352 208 -352 176
WIRE -80 208 -80 176
WIRE -352 320 -352 288
WIRE -80 320 -80 288
WIRE 256 336 256 304
WIRE 544 336 544 208
WIRE 544 336 256 336
WIRE -192 368 -192 -96
WIRE 256 368 256 336
WIRE 256 368 -192 368
WIRE 256 384 256 368
WIRE 256 480 256 464
FLAG -96 128 0
FLAG 256 480 0
FLAG 544 -112 0
FLAG -384 -32 0
FLAG 608 -224 vout
FLAG -320 -224 v_in
FLAG 656 -80 0
FLAG -80 320 0
FLAG -352 320 0
FLAG -288 176 shdn
FLAG 240 -224 source
FLAG 272 -32 gate
SYMBOL SpecialFunctions\\LTC4359 256 176 R0
SYMATTR InstName U1
SYMBOL res -80 64 R180
WINDOW 0 36 76 Left 2
WINDOW 3 36 40 Left 2
SYMATTR InstName R4
SYMATTR Value 10k
SYMBOL cap -80 112 R180
WINDOW 0 24 56 Left 2
WINDOW 3 24 8 Left 2
SYMATTR InstName C1
SYMATTR Value 10n
SYMBOL res 112 -160 R0
SYMATTR InstName R3
SYMATTR Value 10
SYMBOL nmos 48 -176 R270
WINDOW 0 101 -30 VRight 2
WINDOW 3 75 -30 VRight 2
SYMATTR InstName M1
SYMATTR Value AOTL66401
SYMBOL nmos 400 -176 M270
WINDOW 0 104 91 VLeft 2
WINDOW 3 77 89 VLeft 2
SYMATTR InstName M2
SYMATTR Value AOTL66401
SYMBOL zener 240 -128 R270
WINDOW 0 32 32 VTop 2
WINDOW 3 -8 19 VBottom 1
SYMATTR InstName D4
SYMATTR Value BZX84C12VLY
SYMATTR Description Diode
SYMATTR Type diode
SYMBOL cap 528 144 R0
SYMATTR InstName C2
SYMATTR Value 1.5µ
SYMATTR SpiceLine V=50 Irms=0 Rser=0 Lser=0 mfg="Murata" pn="GCM31CR71H155MA55" type="X7R"
SYMBOL res 240 368 R0
SYMATTR InstName R1
SYMATTR Value 1k
SYMBOL polcap 528 -208 R0
WINDOW 3 24 56 Left 2
SYMATTR InstName C3
SYMATTR Value 10µ
SYMATTR Description Capacitor
SYMATTR Type cap
SYMATTR SpiceLine V=35 Irms=150m Rser=0.8 Lser=1.753n mfg="Würth Elektronik" pn="865060542002 WCAP-ASLL 5x5,5" type="Al electrolytic"
SYMBOL TVSdiode -176 -96 R180
WINDOW 0 24 64 Left 2
WINDOW 3 24 0 Left 2
SYMATTR InstName D1
SYMATTR Value SMCJ33A
SYMATTR Description Diode
SYMATTR Type diode
SYMBOL voltage -384 -160 R0
WINDOW 3 45 99 Right 2
WINDOW 123 0 0 Left 0
WINDOW 39 0 0 Left 0
SYMATTR InstName VIN
SYMATTR Value 28
SYMBOL res 640 -208 R0
SYMATTR InstName RL
SYMATTR Value 100
SYMBOL res -96 192 R0
SYMATTR InstName R2
SYMATTR Value 10k
SYMBOL voltage -352 192 R0
WINDOW 3 52 96 Right 2
WINDOW 123 0 0 Left 0
WINDOW 39 0 0 Left 0
SYMATTR InstName V2
SYMATTR Value 3.3
TEXT -368 432 Left 2 !.dc VIN -25 25 1
