Version 4
SHEET 1 880 680
WIRE 144 -64 16 -64
WIRE 512 -64 368 -64
WIRE 16 -16 16 -64
WIRE 368 -16 368 -64
WIRE 512 -16 512 -64
WIRE 144 0 144 -64
WIRE 16 96 16 64
WIRE 512 96 512 64
WIRE 144 112 144 80
WIRE 256 112 144 112
WIRE 144 144 144 112
WIRE 368 144 368 64
WIRE 256 192 256 112
WIRE 256 192 208 192
WIRE 304 192 256 192
WIRE 144 272 144 240
WIRE 368 272 368 240
FLAG 144 272 0
FLAG 368 272 0
FLAG 16 96 0
FLAG 512 96 0
SYMBOL npn 208 144 M0
SYMATTR InstName Q1
SYMATTR Value 2N2222
SYMBOL npn 304 144 R0
SYMATTR InstName Q2
SYMATTR Value 2N2222
SYMBOL res 128 -16 R0
SYMATTR InstName RRef
SYMATTR Value 1k
SYMBOL voltage 16 -32 R0
WINDOW 123 0 0 Left 0
WINDOW 39 0 0 Left 0
SYMATTR InstName Vcc
SYMATTR Value 5
SYMBOL voltage 512 -32 R0
SYMATTR InstName V2
SYMATTR Value 10
SYMBOL res 352 -32 R0
SYMATTR InstName RLoad
SYMATTR Value {load}
TEXT 96 336 Left 2 !.tran 0 1m 100u
TEXT 96 376 Left 2 !.step param LOAD list 10 20 100
TEXT 16 -152 Left 2 ;Iref = (Vcc - 0.7)/Rref\ne.g. Iref = (5-0.7)/1K = 4.3 mA
