Version 4
SHEET 1 880 680
WIRE 112 -64 32 -64
WIRE 32 -48 32 -64
WIRE 32 48 32 32
WIRE 112 96 112 -64
WIRE -16 144 -192 144
WIRE 32 144 -16 144
WIRE 240 144 192 144
WIRE 256 144 240 144
WIRE -16 176 -80 176
WIRE 32 176 -16 176
WIRE 240 176 192 176
WIRE 256 176 240 176
WIRE -192 224 -192 144
WIRE -80 224 -80 176
WIRE 112 256 112 224
WIRE -192 336 -192 304
WIRE -80 336 -80 304
FLAG 32 48 0
FLAG -80 336 0
FLAG -192 336 0
FLAG -16 144 inp
FLAG -16 176 inm
FLAG 112 256 0
FLAG 240 144 outp
FLAG 240 176 outn
SYMBOL voltage 32 -64 R0
WINDOW 123 0 0 Left 0
WINDOW 39 0 0 Left 0
SYMATTR InstName V1
SYMATTR Value 3.3
SYMBOL voltage -80 208 R0
WINDOW 3 -44 -221 VRight 1
WINDOW 123 0 0 Left 0
WINDOW 39 0 0 Left 0
SYMATTR Value PULSE(0 1 0 {1/(2*frq)} {1/(2*frq)} 0 0 10)
SYMATTR InstName V2
SYMBOL voltage -192 208 R0
WINDOW 3 -47 -88 VRight 1
WINDOW 123 0 0 Left 0
WINDOW 39 0 0 Left 0
SYMATTR Value SINE(0.5 0.5 2Meg 0 0 0 10)
SYMATTR InstName V3
SYMBOL MAX40025A 96 176 R0
SYMATTR InstName U1
TEXT -16 304 Left 2 !.param frq=12.5Meg
TEXT -16 336 Left 2 !.tran 500n
