Version 4
SHEET 1 880 680
WIRE -208 48 -240 48
WIRE -32 48 -208 48
WIRE 144 48 48 48
WIRE 256 48 144 48
WIRE 272 48 256 48
WIRE 256 96 256 48
WIRE 144 128 144 48
WIRE -240 144 -240 48
WIRE -16 192 -64 192
WIRE 96 192 64 192
WIRE 256 208 256 176
WIRE -64 240 -64 192
WIRE -240 256 -240 224
WIRE 144 256 144 224
WIRE 256 336 256 288
WIRE -64 352 -64 320
FLAG -64 352 0
FLAG 144 256 0
FLAG 256 336 0
FLAG -240 256 0
FLAG -208 48 in
FLAG 272 48 out
IOPIN 272 48 Out
SYMBOL njf 96 128 R0
SYMATTR InstName J1
SYMATTR Value J111
SYMBOL res 64 32 R90
WINDOW 0 0 56 VBottom 2
WINDOW 3 32 56 VTop 2
SYMATTR InstName R1
SYMATTR Value 10k
SYMBOL res 80 176 R90
WINDOW 0 13 24 VBottom 2
WINDOW 3 -14 123 VTop 2
SYMATTR InstName R2
SYMATTR Value 1Meg
SYMBOL res 240 80 R0
SYMATTR InstName R3
SYMATTR Value 22k
SYMBOL voltage -240 128 R0
WINDOW 3 -62 107 Left 2
WINDOW 123 0 0 Left 0
WINDOW 39 0 0 Left 0
SYMATTR Value SINE(0 50m 1k)
SYMATTR InstName V1
SYMBOL voltage -64 224 R0
WINDOW 123 0 0 Left 0
WINDOW 39 0 0 Left 0
SYMATTR InstName VC
SYMATTR Value {VC}
SYMBOL res 240 192 R0
SYMATTR InstName R4
SYMATTR Value 68k
TEXT -288 -48 Left 2 ;Semiconductor Devices: JFET Voltage Controlled Resistor\nhttps://youtu.be/T4IESXeRtWo?si=Ukin5aEwjMJSvs0i
TEXT 80 400 Left 2 !.tran 2m
TEXT -280 400 Left 2 !.step param VC -5 5 1
