Version 4
SHEET 1 880 680
WIRE 320 -64 128 -64
WIRE 448 -64 400 -64
WIRE -128 -16 -128 -48
WIRE 352 48 352 32
WIRE 0 64 -16 64
WIRE 16 64 0 64
WIRE 128 64 128 -64
WIRE 128 64 96 64
WIRE 160 64 128 64
WIRE 288 64 240 64
WIRE 320 64 288 64
WIRE -128 80 -128 64
WIRE -128 80 -192 80
WIRE 448 80 448 -64
WIRE 448 80 384 80
WIRE 496 80 448 80
WIRE 512 80 496 80
WIRE -128 96 -128 80
WIRE 288 96 240 96
WIRE 320 96 288 96
WIRE -192 112 -192 80
WIRE -16 112 -16 64
WIRE 240 128 240 96
WIRE 352 128 352 112
WIRE -128 208 -128 176
WIRE -16 224 -16 192
WIRE 240 240 240 208
FLAG -192 112 0
FLAG -128 -48 vcc
FLAG -128 208 vee
FLAG -16 224 0
FLAG 0 64 in
FLAG 352 128 vee
FLAG 352 32 vcc
FLAG 496 80 out
FLAG 240 240 0
FLAG 288 64 inm
FLAG 288 96 inp
SYMBOL voltage -128 -32 R0
WINDOW 3 24 85 Left 2
WINDOW 123 0 0 Left 0
WINDOW 39 0 0 Left 0
SYMATTR Value +15
SYMATTR InstName V1
SYMBOL voltage -128 80 R0
WINDOW 3 19 88 Left 2
WINDOW 123 0 0 Left 0
WINDOW 39 0 0 Left 0
SYMATTR Value +15
SYMATTR InstName V2
SYMBOL voltage -16 96 R0
WINDOW 0 43 66 Left 2
WINDOW 3 20 91 Left 2
WINDOW 123 0 0 Left 0
WINDOW 39 0 0 Left 0
SYMATTR InstName V3
SYMATTR Value SINE(0 1m 1k)
SYMBOL res 416 -80 R90
WINDOW 0 0 56 VBottom 2
WINDOW 3 32 45 VTop 2
SYMATTR InstName Rf
SYMATTR Value 1Meg
SYMBOL res 112 48 R90
WINDOW 0 0 56 VBottom 2
WINDOW 3 32 56 VTop 2
SYMATTR InstName R1
SYMATTR Value 1K
SYMBOL OpAmps\\AD8030 352 16 R0
SYMATTR InstName U2
SYMBOL res 256 48 R90
WINDOW 0 0 56 VBottom 2
WINDOW 3 26 82 VTop 2
SYMATTR InstName Rb
SYMATTR Value 1
SYMBOL res 224 112 R0
SYMATTR InstName R3
SYMATTR Value {x}
TEXT -128 280 Left 2 !.tran 0 5m 2m
TEXT -128 352 Left 2 ;Vout = -Vin*(Rf/R1) + Ib*Rf\nVout = 1mVpp*(10e6/10e3) + (-1.7uA*10e6)\nVout = 2Vpp - 1.7Vdc
TEXT -128 312 Left 2 !.step param x list 0.1 1k
