Version 4
SHEET 1 880 680
WIRE 336 -64 256 -64
WIRE 400 -64 336 -64
WIRE 256 -32 256 -64
WIRE 400 -32 400 -64
WIRE 256 80 256 48
WIRE 400 80 400 48
WIRE 256 96 256 80
WIRE -32 176 -64 176
WIRE 32 176 -32 176
WIRE 176 176 112 176
WIRE 208 176 176 176
WIRE -64 192 -64 176
WIRE -64 288 -64 272
WIRE 256 288 256 192
FLAG 256 288 0
FLAG -64 288 0
FLAG 400 80 0
FLAG 336 -64 vin
FLAG 256 80 drain
FLAG 176 176 gate
FLAG -32 176 signal
SYMBOL res 128 160 R90
WINDOW 0 0 56 VBottom 2
WINDOW 3 32 56 VTop 2
SYMATTR InstName RGate
SYMATTR Value 1
SYMBOL voltage -64 176 R0
WINDOW 3 -31 148 Left 1
WINDOW 123 0 0 Left 0
WINDOW 39 0 0 Left 0
SYMATTR InstName V1
SYMATTR Value PULSE(0 5 0 {rise_nsec} {rise_nsec} 500n 1u)
SYMBOL res 240 -48 R0
SYMATTR InstName RLoad
SYMATTR Value .5
SYMBOL voltage 400 -48 R0
WINDOW 123 0 0 Left 0
WINDOW 39 0 0 Left 0
SYMATTR InstName V2
SYMATTR Value 1
SYMBOL Si2302CDS 208 96 R0
SYMATTR InstName U1
TEXT -96 64 Left 2 !.tran 20n
TEXT -96 32 Left 2 !.inc ..\\01-lib\\si2302cds.lib
TEXT -96 0 Left 2 !.param rise_nsec=1n
