Version 4
SHEET 1 880 680
WIRE 96 -112 -112 -112
WIRE -112 -80 -112 -112
WIRE 416 -80 336 -80
WIRE 480 -80 416 -80
WIRE 336 -48 336 -80
WIRE 480 -48 480 -80
WIRE -112 32 -112 0
WIRE 96 48 96 -112
WIRE 336 64 336 32
WIRE 480 64 480 32
WIRE 336 80 336 64
WIRE 32 96 0 96
WIRE -144 160 -176 160
WIRE -112 160 -144 160
WIRE 0 160 0 96
WIRE 0 160 -32 160
WIRE 96 160 96 144
WIRE 144 160 96 160
WIRE 256 160 224 160
WIRE 288 160 256 160
WIRE -176 176 -176 160
WIRE 96 176 96 160
WIRE 0 224 0 160
WIRE 32 224 0 224
WIRE -176 272 -176 256
WIRE 96 304 96 272
WIRE 336 304 336 176
FLAG 336 304 0
FLAG -176 272 0
FLAG 480 64 0
FLAG 416 -80 vin
FLAG 336 64 drain
FLAG 256 160 gate
FLAG -144 160 signal
FLAG -112 32 0
FLAG 96 304 0
SYMBOL res 240 144 R90
WINDOW 0 0 56 VBottom 2
WINDOW 3 32 56 VTop 2
SYMATTR InstName RGate
SYMATTR Value 1
SYMBOL voltage -176 160 R0
WINDOW 3 -18 175 Left 1
WINDOW 123 0 0 Left 0
WINDOW 39 0 0 Left 0
SYMATTR Value PULSE(0 {signal_level} 0 {rise_nsec} {rise_nsec} 500n 1u)
SYMATTR InstName V1
SYMBOL res 320 -64 R0
SYMATTR InstName RLoad
SYMATTR Value .5
SYMBOL voltage 480 -64 R0
WINDOW 123 0 0 Left 0
WINDOW 39 0 0 Left 0
SYMATTR InstName V2
SYMATTR Value 1
SYMBOL Si2302CDS 288 80 R0
SYMATTR InstName U1
SYMBOL pnp 32 272 M180
WINDOW 0 70 7 Left 2
WINDOW 3 70 29 Left 2
SYMATTR InstName Q1
SYMATTR Value 2N2907
SYMBOL npn 32 48 R0
WINDOW 0 63 20 Left 2
WINDOW 3 62 47 Left 2
SYMATTR InstName Q2
SYMATTR Value 2N2222
SYMBOL voltage -112 -96 R0
WINDOW 123 0 0 Left 0
WINDOW 39 0 0 Left 0
SYMATTR InstName V3
SYMATTR Value {signal_level}
SYMBOL res -16 144 R90
WINDOW 0 0 56 VBottom 2
WINDOW 3 32 56 VTop 2
SYMATTR InstName R1
SYMATTR Value 0.01
TEXT -184 -168 Left 2 !.tran 20n
TEXT -184 -296 Left 2 !.inc ..\\01-lib\\si2302cds.lib
TEXT -184 -328 Left 2 !.param rise_nsec=1n
TEXT -184 -264 Left 2 !.step param signal_level list 3.3 5
TEXT -184 -232 Left 2 !.meas TRAN peak_ILoad FIND I(Rload) AT 20n
TEXT -184 -200 Left 2 !.meas TRAN RT_load TRIG I(Rload)=0.18 TARG I(Rload)=1.62
