Version 4
SHEET 1 880 680
WIRE -64 -16 -112 -16
WIRE 48 -16 16 -16
WIRE 96 -16 48 -16
WIRE 128 -16 96 -16
WIRE 240 -16 208 -16
WIRE 48 16 48 -16
WIRE -240 80 -240 64
WIRE 160 128 160 112
WIRE -112 144 -112 -16
WIRE 48 144 48 96
WIRE 96 144 48 144
WIRE 128 144 96 144
WIRE 240 160 240 -16
WIRE 240 160 192 160
WIRE 272 160 240 160
WIRE 288 160 272 160
WIRE -240 176 -240 160
WIRE -240 176 -288 176
WIRE 128 176 64 176
WIRE -288 192 -288 176
WIRE -240 192 -240 176
WIRE 64 192 64 176
WIRE 160 208 160 192
WIRE -240 288 -240 272
FLAG -288 192 0
FLAG -240 64 vcc
FLAG -240 288 vee
FLAG -112 144 0
FLAG 64 192 0
FLAG 160 112 vcc
FLAG 160 208 vee
FLAG 272 160 out
FLAG 96 -16 fb
FLAG 96 144 inm
SYMBOL voltage -240 64 R0
WINDOW 123 0 0 Left 0
WINDOW 39 0 0 Left 0
SYMATTR InstName V1
SYMATTR Value 15
SYMBOL voltage -240 176 R0
WINDOW 123 0 0 Left 0
WINDOW 39 0 0 Left 0
SYMATTR InstName V2
SYMATTR Value 15
SYMBOL res 32 -32 R90
WINDOW 0 0 56 VBottom 2
WINDOW 3 32 56 VTop 2
SYMATTR InstName R1
SYMATTR Value 1k
SYMBOL res 224 -32 R90
WINDOW 0 0 56 VBottom 2
WINDOW 3 32 56 VTop 2
SYMATTR InstName RF
SYMATTR Value 1k
SYMBOL OpAmps\\LT6016 160 160 R0
SYMATTR InstName U1
SYMBOL voltage 48 0 R0
WINDOW 3 37 55 Left 2
WINDOW 123 35 83 Left 2
WINDOW 39 0 0 Left 0
SYMATTR InstName V3
SYMATTR Value 0
SYMATTR Value2 AC 1
TEXT -40 280 Left 2 !.ac dec 100 1k 10meg
