Version 4
SHEET 1 880 680
WIRE -64 -96 -112 -96
WIRE 48 -96 16 -96
WIRE 96 -96 48 -96
WIRE 128 -96 96 -96
WIRE 416 -96 208 -96
WIRE 48 -32 48 -96
WIRE 128 -32 48 -32
WIRE 224 -32 192 -32
WIRE 48 16 48 -32
WIRE -224 80 -224 64
WIRE 160 128 160 112
WIRE -112 144 -112 -96
WIRE 48 144 48 96
WIRE 96 144 48 144
WIRE 128 144 96 144
WIRE 224 160 224 -32
WIRE 224 160 192 160
WIRE 272 160 224 160
WIRE 304 160 272 160
WIRE 416 160 416 -96
WIRE 416 160 384 160
WIRE 432 160 416 160
WIRE -224 176 -224 160
WIRE -224 176 -272 176
WIRE 128 176 64 176
WIRE 432 176 432 160
WIRE -272 192 -272 176
WIRE -224 192 -224 176
WIRE 64 192 64 176
WIRE 160 208 160 192
WIRE 432 272 432 240
WIRE -224 288 -224 272
FLAG -272 192 0
FLAG -224 64 vcc
FLAG -224 288 vee
FLAG -112 144 0
FLAG 64 192 0
FLAG 160 112 vcc
FLAG 160 208 vee
FLAG 272 160 out
FLAG 96 -96 fb
FLAG 96 144 inm
FLAG 432 272 0
SYMBOL voltage -224 64 R0
WINDOW 123 0 0 Left 0
WINDOW 39 0 0 Left 0
SYMATTR InstName V1
SYMATTR Value 15
SYMBOL voltage -224 176 R0
WINDOW 123 0 0 Left 0
WINDOW 39 0 0 Left 0
SYMATTR InstName V2
SYMATTR Value 15
SYMBOL res 32 -112 R90
WINDOW 0 0 56 VBottom 2
WINDOW 3 32 56 VTop 2
SYMATTR InstName R1
SYMATTR Value 1k
SYMBOL res 224 -112 R90
WINDOW 0 0 56 VBottom 2
WINDOW 3 -18 10 VTop 2
SYMATTR InstName RF
SYMATTR Value 1k
SYMBOL OpAmps\\LT6016 160 160 R0
SYMATTR InstName U1
SYMBOL voltage 48 0 R0
WINDOW 3 37 55 Left 2
WINDOW 123 35 83 Left 2
WINDOW 39 0 0 Left 0
SYMATTR InstName V3
SYMATTR Value 0
SYMATTR Value2 AC 1
SYMBOL cap 416 176 R0
WINDOW 3 -69 52 Left 2
SYMATTR InstName C1
SYMATTR Value 750pF
SYMBOL res 400 144 R90
WINDOW 0 0 56 VBottom 2
WINDOW 3 32 56 VTop 2
SYMATTR InstName R2
SYMATTR Value 50
SYMBOL cap 192 -48 R90
WINDOW 0 9 2 VBottom 2
WINDOW 3 32 32 VTop 2
SYMATTR InstName C2
SYMATTR Value 180pF
TEXT -40 280 Left 2 !.ac dec 100 10k 10meg
