*----------------------------------------------------------------------
* SPICE Model generated by Murata Manufacturing Co., Ltd.
* Copyright(C) Murata Manufacturing Co., Ltd.
* MURATA P/N : BLM18HG471SN1
* Property : Z@100MHz = 470[ohm]
*----------------------------------------------------------------------
* Applicable Conditions:
*   Frequency Range = 1MHz - 3GHz
*   Temperature = 25 degC
*   DC Bias Current = 0 A
*   Small Signal Operation
*----------------------------------------------------------------------
.SUBCKT BLM18HG471SN1 port1 port2
R1 port1 1 162.9
C2 1 2 2.871e-10
L1 port1 2 1.079e-6
R2 2 3 436.1
L2 2 3 4.664e-7
C1 port1 3 2.081e-13
R3 3 4 100.0
L3 3 4 2.796e-6
R4 4 port2 5.000e-1
.ENDS BLM18HG471SN1
*----------------------------------------------------------------------
