Version 4
SHEET 1 880 680
WIRE 224 0 224 -16
WIRE -128 16 -128 -16
WIRE 192 16 16 16
WIRE 368 32 256 32
WIRE 384 32 368 32
WIRE 160 48 144 48
WIRE 192 48 160 48
WIRE 16 80 16 16
WIRE 144 80 144 48
WIRE 224 80 224 64
WIRE -128 112 -128 96
WIRE -128 112 -192 112
WIRE -128 128 -128 112
WIRE -192 144 -192 112
WIRE 16 176 16 160
WIRE 144 176 144 160
WIRE -128 240 -128 208
FLAG -192 144 0
FLAG -128 -16 vcc
FLAG -128 240 vee
FLAG 16 176 0
FLAG 160 48 in
FLAG 224 80 vee
FLAG 224 -16 vcc
FLAG 368 32 out
FLAG 144 176 0
SYMBOL OpAmps\\OP07 224 -32 R0
SYMATTR InstName U1
SYMBOL voltage -128 0 R0
WINDOW 3 24 85 Left 2
WINDOW 123 0 0 Left 0
WINDOW 39 0 0 Left 0
SYMATTR Value +18
SYMATTR InstName V1
SYMBOL voltage -128 112 R0
WINDOW 3 19 88 Left 2
WINDOW 123 0 0 Left 0
WINDOW 39 0 0 Left 0
SYMATTR Value +18
SYMATTR InstName V2
SYMBOL voltage 144 64 R0
WINDOW 0 43 73 Left 2
WINDOW 3 26 98 Left 2
WINDOW 123 0 0 Left 0
WINDOW 39 0 0 Left 0
SYMATTR InstName V3
SYMATTR Value SINE(0 1 100)
SYMBOL voltage 16 64 R0
WINDOW 0 37 72 Left 2
WINDOW 3 22 96 Left 2
WINDOW 123 0 0 Left 0
WINDOW 39 0 0 Left 0
SYMATTR InstName V4
SYMATTR Value 0.5
TEXT -40 240 Left 2 !.tran 30m
