Version 4
SHEET 1 880 680
WIRE 112 -48 64 -48
WIRE 144 -48 112 -48
WIRE 64 -16 64 -48
WIRE 64 80 64 64
WIRE 144 96 144 -48
WIRE 336 144 272 144
WIRE 416 144 336 144
WIRE 336 176 272 176
WIRE 416 176 336 176
WIRE 144 256 144 240
FLAG 144 256 0
FLAG 64 80 0
FLAG 336 144 out_pin
FLAG 336 176 temp_pin
FLAG 112 -48 vin
SYMBOL REF5025 160 176 R0
SYMATTR InstName U1
SYMBOL voltage 64 -32 R0
SYMATTR InstName VIN
SYMATTR Value 5
TEXT 192 248 Left 2 !.tran 1m
TEXT 192 280 Left 2 !.temp 0 25 50
TEXT -8 320 Left 2 !.meas TRAN out_per_temp FIND V(out_pin) AT 500u
