Version 4
SHEET 1 880 680
WIRE 112 -48 64 -48
WIRE 144 -48 112 -48
WIRE 64 -16 64 -48
WIRE 64 80 64 64
WIRE 144 96 144 -48
WIRE 336 144 272 144
WIRE 464 144 336 144
WIRE 464 160 464 144
WIRE 336 176 272 176
WIRE 416 176 336 176
WIRE 144 256 144 240
WIRE 464 256 464 240
WIRE 528 256 464 256
WIRE 592 256 528 256
WIRE 464 272 464 256
WIRE 464 384 464 352
FLAG 144 256 0
FLAG 64 80 0
FLAG 336 144 out_pin
FLAG 336 176 temp_pin
FLAG 112 -48 vin
FLAG 464 384 0
FLAG 528 256 output
SYMBOL REF5025 160 176 R0
SYMATTR InstName U1
SYMBOL voltage 64 -32 R0
SYMATTR InstName VIN
SYMATTR Value 5
SYMBOL res 448 144 R0
WINDOW 0 38 24 Left 2
WINDOW 3 36 51 Left 2
SYMATTR InstName R1
SYMATTR Value {mc(1K,tolerance/100)}
SYMBOL res 448 256 R0
WINDOW 0 38 24 Left 2
WINDOW 3 36 51 Left 2
SYMATTR InstName R2
SYMATTR Value {mc(1m,tolerance/100)}
TEXT 56 336 Left 2 !.tran 200u
TEXT 56 368 Left 2 !.temp 0 10 20 30 40 50
TEXT 248 -40 Left 2 !.param tolerance=1
TEXT 576 -40 Left 2 ;%
TEXT 248 -8 Left 2 !.step param x 1 50 1
TEXT 248 24 Left 2 !.meas vout_avg AVG V(output)
TEXT 576 -8 Left 2 ;#Iteration
