Version 4
SHEET 1 880 680
WIRE 480 16 384 16
WIRE 480 32 480 16
WIRE 96 80 32 80
WIRE 32 96 32 80
WIRE 96 112 96 80
WIRE 160 112 96 112
WIRE 384 112 384 16
WIRE 384 112 352 112
WIRE 480 128 480 112
WIRE 416 160 352 160
WIRE 432 160 416 160
WIRE 32 208 32 176
WIRE 112 208 96 208
WIRE 160 208 112 208
WIRE 400 208 352 208
WIRE 96 256 96 208
WIRE 400 256 400 208
WIRE 96 368 96 336
WIRE 96 480 96 448
FLAG 32 208 0
FLAG 96 480 0
FLAG 416 160 out
FLAG 400 256 0
FLAG 480 128 0
FLAG 112 208 cathode
SYMBOL res 80 240 R0
SYMATTR InstName R1
SYMATTR Value 100
SYMBOL voltage 32 80 R0
WINDOW 0 38 54 Left 2
WINDOW 3 35 78 Left 2
WINDOW 123 0 0 Left 0
WINDOW 39 0 0 Left 0
SYMATTR InstName V1
SYMATTR Value 3.3
SYMBOL voltage 96 352 R0
WINDOW 123 0 0 Left 0
WINDOW 39 0 0 Left 0
SYMATTR InstName V2
SYMATTR Value PULSE(0 3.3 0 100p 100p {1/(2*frq)} {1/frq})
SYMBOL voltage 480 16 R0
WINDOW 123 0 0 Left 0
WINDOW 39 0 0 Left 0
SYMATTR InstName V3
SYMATTR Value 3.3
SYMBOL TLP2770 256 160 R0
SYMATTR InstName U1
TEXT 120 496 Left 2 !.param frq=12.5Meg
TEXT 120 536 Left 2 !.tran 500n
