Version 4
SHEET 1 880 680
WIRE 144 112 80 112
WIRE 208 112 144 112
WIRE 416 112 400 112
WIRE 80 144 80 112
WIRE 80 240 80 224
WIRE 416 240 416 112
WIRE 416 240 80 240
WIRE 80 272 80 240
FLAG 80 272 0
FLAG 144 112 impedance
SYMBOL current 80 224 R180
WINDOW 0 24 80 Left 2
WINDOW 3 24 0 Left 2
WINDOW 123 19 0 Left 2
WINDOW 39 0 0 Left 0
SYMATTR InstName I1
SYMATTR Value ""
SYMATTR Value2 AC 1
SYMBOL 1264EY100M_LT 304 112 R0
SYMATTR InstName U1
TEXT 128 264 Left 2 !.ac dec 101 10 1G
TEXT 0 -16 Left 2 ;Reference: 1264EY100M
TEXT 0 8 Left 0 ;https://www.murata.com/en-us/products/productdetail?partno=1264EY-100M%23
