Version 4
SHEET 1 1000 680
WIRE 208 80 48 80
WIRE 48 112 48 80
WIRE 208 128 208 80
WIRE 48 224 48 192
WIRE 208 224 208 192
WIRE 208 224 48 224
WIRE 48 256 48 224
FLAG 48 256 0
FLAG 208 80 cap
SYMBOL C0402C104K3PAC 208 160 R0
WINDOW 0 25 -39 Top 2
WINDOW 3 73 31 Bottom 1
SYMATTR InstName U1
SYMBOL current 48 192 R180
WINDOW 0 -37 88 Left 2
WINDOW 3 24 0 Left 2
WINDOW 123 -64 -5 Left 2
WINDOW 39 0 0 Left 0
SYMATTR InstName I1
SYMATTR Value ""
SYMATTR Value2 AC 1
TEXT 80 256 Left 2 !.ac dec 10 10 10G
