Version 4
SHEET 1 944 680
WIRE 208 80 80 80
WIRE 224 80 208 80
WIRE 544 80 416 80
WIRE 560 80 544 80
WIRE 80 112 80 80
WIRE 416 112 416 80
WIRE 224 128 224 80
WIRE 560 128 560 80
WIRE 80 224 80 192
WIRE 224 224 224 192
WIRE 416 224 416 192
WIRE 560 224 560 192
WIRE 544 336 416 336
WIRE 560 336 544 336
WIRE 416 368 416 336
WIRE 560 384 560 336
WIRE 416 480 416 448
WIRE 560 480 560 448
FLAG 80 224 0
FLAG 224 224 0
FLAG 208 80 z
FLAG 416 224 0
FLAG 560 224 0
FLAG 544 80 murata
FLAG 416 480 0
FLAG 560 480 0
FLAG 544 336 murata_0rser
SYMBOL current 80 192 R180
WINDOW 0 18 86 Left 2
WINDOW 3 24 0 Left 2
WINDOW 123 15 -1 Left 2
WINDOW 39 0 0 Left 0
SYMATTR InstName I1
SYMATTR Value ""
SYMATTR Value2 AC 1
SYMBOL cap 208 128 R0
SYMATTR InstName C1
SYMATTR Value 4.7µ
SYMATTR SpiceLine Rser=6m Lser=270p
SYMBOL current 416 192 R180
WINDOW 0 18 86 Left 2
WINDOW 3 24 0 Left 2
WINDOW 123 15 -1 Left 2
WINDOW 39 0 0 Left 0
SYMATTR InstName I2
SYMATTR Value ""
SYMATTR Value2 AC 1
SYMBOL GRM188R6YA475KE15_DC0V_25degC 560 128 R0
WINDOW 3 -55 124 Top 1
SYMATTR InstName U1
SYMBOL current 416 448 R180
WINDOW 0 18 86 Left 2
WINDOW 3 24 0 Left 2
WINDOW 123 15 -1 Left 2
WINDOW 39 0 0 Left 0
SYMATTR InstName I3
SYMATTR Value ""
SYMATTR Value2 AC 1
SYMBOL GRM188R6YA475KE15_DC0V_25degC_0Rser 560 384 R0
WINDOW 3 -18 120 Top 1
SYMATTR InstName U2
TEXT 48 264 Left 2 !.ac dec 10 100 10G
TEXT 16 -32 Left 2 ;LTspice tutorial - Simulating capacitors - How hard can it be?\nhttps://youtu.be/QpWPTolhfEo?si=I_P7x6hrTievyiYc
TEXT 8 -72 Left 4 ;Reference
