* CL32B106KBJNFN Multilayer Ceramic Capacitor Spice Model
*-----------------------------------------------------------------------------------------------
* Model Generated by Samsung Electro-Mechanics
* Samsung Spice Model Version 5.0
* Date : Dec-31-2024
* Products : Multilayer Ceramic Capacitor(General)
*-----------------------------------------------------------------------------------------------
* Characteristics :
*
*     Nominal Capacitance = 10uF
*     Capacitance Tolerance = +/-10%
*     TCC = X7R(-55 ~ +125 degC.)
*     Rated Voltage = 50Vdc
*     Size = 1210(unit:inch), 3225(unit:mm)
*     Length = 3.20+/-0.30mm
*     Width = 2.50+/-0.20mm
*     Thickness = 2.50+/-0.20mm
*     Reliability level = Standard
*     Lineup = Lineup Normal
*     Feature = Features Normal
*     Measurement Temperature : 25degC.
*     DC bias Value = 0V
*     Frequency : 100Hz ~ 6GHz
*-----------------------------------------------------------------------------------------------
* External Node Assignments :
*
*  1  o---||---o  2
*
*-----------------------------------------------------------------------------------------------
.SUBCKT CL32B106KBJNFN_Precise_DC0V_25degC 1 2
C1 1 3 9.48603E-6
C2 3 4 3.53268E-4
C3 4 5 5.78871E-4
C4 5 6 5.84510E-4
C5 6 7 5.30700E-4
C6 7 8 5.02503E-4
C7 8 9 1.62002E-4
C8 9 10 1.0E-10
C16 17 18 0.00453
C17 18 19 0.02128
C18 19 20 0.01251
C19 20 21 0.02654
C20 21 22 0.00119
C21 22 23 2.53303E-4
C22 23 24 1.80352E-6
C23 24 25 1.26482E-5
C24 25 26 1.50386E-5
C25 26 27 1.85695E-6
C26 27 28 4.78219E-11
C27 28 2 7.72744E-11
L10 11 12 2.03226E-10 Rser=0.0
L11 12 13 1.96742E-10 Rser=0.0
L12 13 14 4.04964E-11 Rser=0.0
L13 14 15 1.0E-10 Rser=0.0
L14 15 16 1.0E-10 Rser=0.0
L15 16 17 1.0E-10 Rser=0.0
L16 17 18 1.15453E-10 Rser=0.0
L17 18 19 2.79223E-12 Rser=0.0
L18 19 20 3.54230E-12 Rser=0.0
L19 20 21 6.16457E-13 Rser=0.0
L20 21 22 7.90473E-12 Rser=0.0
L21 22 23 1.0E-10 Rser=0.0
L22 23 24 5.21579E-11 Rser=0.0
L23 24 25 2.09618E-10 Rser=0.0
L24 25 26 7.75220E-11 Rser=0.0
L25 26 27 2.21347E-10 Rser=0.0
L26 27 28 6.19843E-11 Rser=0.0
L27 28 2 1.15603E-11 Rser=0.0
R1 1 3 1.0E8
R2 3 4 8.83217
R3 4 5 0.68780
R4 5 6 0.11256
R5 6 7 0.02222
R6 7 8 0.00451
R7 8 9 8.20338E-4
R8 9 10 1.0E-6
R9 10 11 0.00142
R11 12 13 0.02632
R12 13 14 0.05140
R13 14 15 1.0E-6
R14 15 16 1.0E-6
R15 16 17 1.0E-6
R16 17 18 1.21343E-4
R17 18 19 9.02363E-5
R18 19 20 6.93689E-5
R19 20 21 8.50298E-5
R20 21 22 4.19786E-5
R21 22 23 1.0E-6
R22 23 24 0.00564
R23 24 25 0.01884
R24 25 26 0.01001
R25 26 27 0.01129
R26 27 28 2.36308
R27 28 2 0.47011
.ENDS CL32B106KBJNFN_Precise_DC0V_25degC