* CL32B106KBJNFN Multilayer Ceramic Capacitor Spice Model
*-----------------------------------------------------------------------------------------------
* Model Generated by Samsung Electro-Mechanics
* Samsung Spice Model Version 5.0
* Date : Dec-31-2024
* Products : Multilayer Ceramic Capacitor(General)
*-----------------------------------------------------------------------------------------------
* Characteristics :
*
*     Nominal Capacitance = 10uF
*     Capacitance Tolerance = +/-10%
*     TCC = X7R(-55 ~ +125 degC.)
*     Rated Voltage = 50Vdc
*     Size = 1210(unit:inch), 3225(unit:mm)
*     Length = 3.20+/-0.30mm
*     Width = 2.50+/-0.20mm
*     Thickness = 2.50+/-0.20mm
*     Reliability level = Standard
*     Lineup = Lineup Normal
*     Feature = Features Normal
*     Measurement Temperature : 25degC.
*     DC bias Value = 0V
*     Frequency : 100Hz ~ 6GHz
*-----------------------------------------------------------------------------------------------
* External Node Assignments :
*
*  1  o---||---o  2
*
*-----------------------------------------------------------------------------------------------
.SUBCKT CL32B106KBJNFN_Simple_DC0V_25degC 1 2
C1 1 3 8.61819E-6
L1 4 2 4.45124E-10 Rser=0.0
R1 1 3 1.0E8
R2 3 4 0.00296
.ENDS CL32B106KBJNFN_Simple_DC0V_25degC