*----------------------------------------------------------------------
* SPICE Model generated by Murata Manufacturing Co., Ltd.
* Copyright(C) Murata Manufacturing Co., Ltd.
* Description :1608M(0603)/X5R/4.7uF/35V
* Murata P/N :GRM188R6YA475KE15
* Property : C = 4.7[uF]
* Data Generated on Oct 1, 2019
*----------------------------------------------------------------------
* Applicable Conditions:
*   Frequency Range = 100Hz-6GHz
*   Temperature = 25 degC
*   DC Bias Voltage = 0V
*   Small Signal Operation
*----------------------------------------------------------------------
.SUBCKT GRM188R6YA475KE15_DC0V_25degC_0Rser port1 port2
C1 port1 11 3.69e-6
L2 11 12 2.20e-10 Rser=0
R3 12 13 3.74e-3
C4 13 14 1.84e-4
R4 13 14 24.2
C5 14 15 2.77e-4
R5 14 15 3.90
C6 15 16 2.45e-4
R6 15 16 8.44e-1
C7 16 17 2.23e-4
R7 16 17 1.78e-1
C8 17 18 1.77e-4
R8 17 18 3.73e-2
C9 18 19 1.19e-4
R9 18 19 7.56e-3
L10 19 20 2.00e-11 Rser=0
R10 19 20 1.30e-1
L11 20 21 3.88e-11 Rser=0
R11 20 21 3.02e-2
L12 21 22 2.04e-10 Rser=0
R12 21 22 2.10e-2
C13 22 23 1.59e-5
L13 22 23 4.11e-11 Rser=0
R13 22 23 5.25e-3
C14 23 24 4.79e-6
L14 23 24 6.80e-11 Rser=0
R14 23 24 7.75e-3
C15 24 port2 9.36e-12
L15 24 port2 3.83e-11 Rser=0
R15 24 port2 6.83
R100 port1 11 1.06e+7
.ENDS GRM188R6YA475KE15_DC0V_25degC_0Rser
