*----------------------------------------------------------------------
* SPICE Model generated by Murata Manufacturing Co., Ltd.
* Copyright(C) Murata Manufacturing Co., Ltd.
* Description :3216M(1206)/C0G/0.22uF/50V
* Murata P/N :GRM31C5C1H224GE02
* Property : C = 0.22[uF]
* Data Generated on Mar 5, 2019
*----------------------------------------------------------------------
* Applicable Conditions:
*   Frequency Range = 1MHz-6GHz
*   Temperature = 25 degC
*   DC Bias Voltage = 0V
*   Small Signal Operation
*----------------------------------------------------------------------
.SUBCKT GRM31C5C1H224GE02_DC0V_25degC port1 port2
C1 port1 11 2.24e-7
L2 11 12 4.73e-11
R3 12 13 2.32e-3
C4 13 14 5.49e-4
R4 13 14 2.75e-4
L5 14 15 2.19e-11
R5 14 15 2.97e-1
L6 15 16 2.41e-10
R6 15 16 7.48e-2
L7 16 17 2.61e-10
R7 16 17 2.42e-3
C8 17 18 8.03e-7
L8 17 18 7.49e-11
R8 17 18 8.20e-2
C9 18 19 4.56e-7
L9 18 19 6.32e-11
R9 18 19 9.22e-2
C10 19 20 1.11e-6
L10 19 20 1.38e-11
R10 19 20 2.04e-2
C11 20 21 4.85e-7
L11 20 21 1.90e-11
R11 20 21 3.49e-2
C12 21 port2 1.16e-12
L12 21 port2 5.24e-10
R12 21 port2 2.17e+3
R100 port1 11 2.27e+9
.ENDS GRM31C5C1H224GE02_DC0V_25degC