Version 4
SHEET 1 1388 836
WIRE 0 64 -48 64
WIRE 64 64 0 64
WIRE 176 64 144 64
WIRE 288 64 256 64
WIRE 528 64 288 64
WIRE 640 64 528 64
WIRE 752 64 640 64
WIRE 864 64 752 64
WIRE 1104 64 864 64
WIRE 1296 64 1104 64
WIRE 1328 64 1296 64
WIRE 288 80 288 64
WIRE 528 80 528 64
WIRE 640 80 640 64
WIRE 752 80 752 64
WIRE 864 80 864 64
WIRE 1104 80 1104 64
WIRE -48 176 -48 64
WIRE 288 176 288 160
WIRE 528 176 528 160
WIRE 640 176 640 160
WIRE 752 176 752 160
WIRE 864 176 864 160
WIRE 1104 176 1104 160
WIRE 1296 176 1296 64
WIRE 288 272 288 256
WIRE 528 272 528 256
WIRE 640 272 640 256
WIRE 752 272 752 256
WIRE 864 272 864 256
WIRE 1104 272 1104 256
WIRE -48 352 -48 256
WIRE 288 352 288 336
WIRE 288 352 -48 352
WIRE 528 352 528 336
WIRE 528 352 288 352
WIRE 640 352 640 336
WIRE 640 352 528 352
WIRE 752 352 752 336
WIRE 752 352 640 352
WIRE 864 352 864 336
WIRE 864 352 752 352
WIRE 1104 352 1104 336
WIRE 1104 352 864 352
WIRE 1296 352 1296 256
WIRE 1296 352 1104 352
WIRE -48 368 -48 352
WIRE -16 448 -32 448
WIRE 16 448 -16 448
WIRE 160 448 112 448
WIRE 192 448 160 448
WIRE -32 496 -32 448
WIRE 112 496 112 448
WIRE -32 624 -32 576
WIRE 112 624 112 576
FLAG -48 368 0
FLAG 1328 64 pdn
FLAG 0 64 supply
FLAG -32 624 0
FLAG -16 448 reference
FLAG 112 624 0
FLAG 160 448 target
SYMBOL res 272 64 R0
SYMATTR InstName R1
SYMATTR Value 25m
SYMBOL ind 272 160 R0
SYMATTR InstName L1
SYMATTR Value 3.2n
SYMBOL cap 272 272 R0
SYMATTR InstName C1
SYMATTR Value 470µ
SYMBOL current -48 256 R180
WINDOW 0 -38 89 Left 2
WINDOW 3 24 0 Left 2
WINDOW 123 -61 -8 Left 2
WINDOW 39 0 0 Left 0
SYMATTR InstName I1
SYMATTR Value ""
SYMATTR Value2 AC 1
SYMBOL res 512 64 R0
SYMATTR InstName R2
SYMATTR Value 14m
SYMBOL ind 512 160 R0
SYMATTR InstName L2
SYMATTR Value 1n
SYMBOL cap 512 272 R0
SYMATTR InstName C2
SYMATTR Value 1µ
SYMBOL res 624 64 R0
SYMATTR InstName R3
SYMATTR Value 14m
SYMBOL ind 624 160 R0
SYMATTR InstName L3
SYMATTR Value 0.7n
SYMBOL cap 624 272 R0
SYMATTR InstName C3
SYMATTR Value 220n
SYMBOL res 736 64 R0
SYMATTR InstName R4
SYMATTR Value 3m
SYMBOL ind 736 160 R0
SYMATTR InstName L4
SYMATTR Value 0.7n
SYMBOL cap 736 272 R0
SYMATTR InstName C4
SYMATTR Value 100n
SYMBOL res 848 64 R0
SYMATTR InstName R5
SYMATTR Value 4.6m
SYMBOL ind 848 160 R0
SYMATTR InstName L5
SYMATTR Value 0.7n
SYMBOL cap 848 272 R0
SYMATTR InstName C5
SYMATTR Value 33n
SYMBOL res 1088 64 R0
SYMATTR InstName R6
SYMATTR Value 0.1m
SYMBOL ind 1088 160 R0
SYMATTR InstName L6
SYMATTR Value 0.1n
SYMBOL cap 1088 272 R0
SYMATTR InstName C6
SYMATTR Value 30n
SYMBOL res 160 48 R90
WINDOW 0 0 56 VBottom 2
WINDOW 3 32 56 VTop 2
SYMATTR InstName R7
SYMATTR Value 5m
SYMBOL ind 160 80 R270
WINDOW 0 32 56 VTop 2
WINDOW 3 5 56 VBottom 2
SYMATTR InstName L7
SYMATTR Value 400n
SYMBOL res 1280 160 R0
SYMATTR InstName R9
SYMATTR Value 10
SYMBOL voltage -32 480 R0
WINDOW 123 15 104 Left 2
WINDOW 39 0 0 Left 0
SYMATTR InstName V1
SYMATTR Value ""
SYMATTR Value2 AC 1
SYMBOL bv 112 480 R0
WINDOW 123 24 124 Left 2
SYMATTR InstName B1
SYMATTR Value V=V(reference)
SYMATTR Value2 FREQ=({frq},{impedance},0) (1G,0,0)
TEXT 440 -32 Left 2 !.ac dec 10 100 1G
TEXT 272 384 Left 2 ;Bulk
TEXT 504 384 Left 2 ;MLCC
TEXT 608 384 Left 2 ;MLCC
TEXT 720 384 Left 2 ;MLCC
TEXT 832 384 Left 2 ;MLCC
TEXT 1088 384 Left 2 ;Plane
TEXT 496 -72 Left 2 !.param frq=100Meg ref_res=100m
TEXT 656 512 Left 2 !.param  impedance=20*log10({ref_res})
TEXT -48 -136 Left 2 ;Take a look at http://app.pdntool.com/
TEXT -48 -184 Left 4 ;PDN Analysis
TEXT -40 -72 Left 2 ;1. Define desired frequency and impedance ->
TEXT -40 -32 Left 2 ;2. Frequency range is almost constant ->
TEXT -72 672 Left 2 ;4. Further change of the desired values can be achieved by our B source
