*----------------------------------------------------------------------
* SPICE Model generated by Murata Manufacturing Co., Ltd.
* Copyright(C) Murata Manufacturing Co., Ltd.
* Description :7343/47.0uF/16.0V/40.0mohm
* Murata P/N :ECASD31C476M040KA0
* Property : C = 47.0[uF]
*----------------------------------------------------------------------
* Applicable Conditions:
*   Frequency Range = 1kHz-1GHz
*   Temperature = 25 degC
*   Small Signal Operation
*----------------------------------------------------------------------
.SUBCKT ECASD31C476M040KA0 port1 port2
C1 port1 11 4.61e-5
L2 11 12 1.07e-9
R3 12 13 4.78e-3
C4 13 14 4.58e-4
R4 13 14 1.35e-3
C5 14 15 2.77e-3
R5 14 15 1.57e-2
C6 15 16 3.33e-3
R6 15 16 3.44e-1
C7 16 17 7.01e-3
R7 16 17 7.40e-1
L8 17 18 1.37e-10
R8 17 18 2.69e-3
L9 18 19 1.36e-10
R9 18 19 2.60e-2
L10 19 port2 3.69e-11
R10 19 port2 4.30e-1
R100 port1 11 7.09e+4
.ENDS ECASD31C476M040KA0