*----------------------------------------------------------------------
* SPICE Model generated by Murata Manufacturing Co., Ltd.
* Copyright(C) Murata Manufacturing Co., Ltd.
* Description :1608M(0603)/X7T/1uF/50V
* Murata P/N :GRM188D71H105KE01
* Property : C = 1[uF]
* Data Generated on Dec 5, 2023
*----------------------------------------------------------------------
* Applicable Conditions:
*   Frequency Range = 100Hz-6GHz
*   Temperature = 25 degC
*   DC Bias Voltage = 0V
*   Small Signal Operation
*----------------------------------------------------------------------
.SUBCKT GRM188D71H105KE01_DC0V_25degC port1 port2
C1 port1 11 9.73e-7
L2 11 12 1.85e-10
R3 12 13 5.61e-3
C4 13 14 1.11e-4
R4 13 14 22.2
C5 14 15 1.29e-4
R5 14 15 4.93
C6 15 16 1.18e-4
R6 15 16 1.04
C7 16 17 1.28e-4
R7 16 17 1.98e-1
C8 17 18 1.07e-4
R8 17 18 4.32e-2
C9 18 19 6.22e-5
R9 18 19 1.10e-2
L10 19 20 1.03e-11
R10 19 20 1.08e-1
L11 20 21 1.80e-11
R11 20 21 4.71e-2
L12 21 22 1.29e-10
R12 21 22 2.61e-2
L13 22 23 4.29e-11
R13 22 23 1.00e-2
C14 23 24 6.38e-6
L14 23 24 2.21e-11
R14 23 24 9.76e-3
C15 24 25 1.05e-6
L15 24 25 6.13e-11
R15 24 25 1.36e-2
C16 25 port2 2.18e-11
L16 25 port2 3.18e-11
R16 25 port2 4.03
R100 port1 11 5.00e+7
.ENDS GRM188D71H105KE01_DC0V_25degC