*----------------------------------------------------------------------
* SPICE Model generated by Murata Manufacturing Co., Ltd.
* Copyright(C) Murata Manufacturing Co., Ltd.
* Description :3216M(1206)/X7T/10uF/50V
* Murata P/N :GRM31CD71H106KE11
* Property : C = 10[uF]
* Data Generated on Apr 1, 2020
*----------------------------------------------------------------------
* Applicable Conditions:
*   Frequency Range = 100Hz-6GHz
*   Temperature = 25 degC
*   DC Bias Voltage = 0V
*   Small Signal Operation
*----------------------------------------------------------------------
.SUBCKT GRM31CD71H106KE11_DC0V_25degC port1 port2
C1 port1 11 9.74e-6
L2 11 12 4.51e-11
R3 12 13 2.58e-3
C4 13 14 8.70e-4
R4 13 14 4.44
C5 14 15 8.88e-4
R5 14 15 4.83e-1
C6 15 16 7.54e-4
R6 15 16 7.39e-2
C7 16 17 6.74e-4
R7 16 17 7.65e-3
C8 17 18 1.06e-3
R8 17 18 5.89e-4
L9 18 19 1.57e-11
R9 18 19 5.98e-2
L10 19 20 5.35e-11
R10 19 20 2.67e-2
L11 20 21 4.31e-10
R11 20 21 1.71e-2
C12 21 22 2.48e-5
L12 21 22 1.07e-10
R12 21 22 7.42e-3
C13 22 23 1.45e-5
L13 22 23 8.24e-11
R13 22 23 6.11e-3
C14 23 24 1.51e-11
L14 23 24 6.39e-11
R14 23 24 9.34
C15 24 port2 1.25e-12
L15 24 port2 3.15e-10
R15 24 port2 198
R100 port1 11 5.00e+6
.ENDS GRM31CD71H106KE11_DC0V_25degC