*----------------------------------------------------------------------
* SPICE Model generated by Murata Manufacturing Co., Ltd.
* Copyright(C) Murata Manufacturing Co., Ltd.
* Description :3216M(1206)/C0G/0.1uF/50V
* Murata P/N :GRM3195C1H104GA05
* Property : C = 0.1[uF]
* Data Generated on Jul 5, 2018
*----------------------------------------------------------------------
* Applicable Conditions:
*   Frequency Range = 1MHz-6GHz
*   Temperature = 25 degC
*   DC Bias Voltage = 0V
*   Small Signal Operation
*----------------------------------------------------------------------
.SUBCKT GRM3195C1H104GA05_DC0V_25degC port1 port2
C1 port1 11 1.02e-7
L2 11 12 2.73e-11
R3 12 13 3.75e-3
L4 13 14 1.26e-11
R4 13 14 1.70e-1
L5 14 15 1.57e-10
R5 14 15 1.13e-1
L6 15 16 8.53e-11
R6 15 16 2.45e-3
C7 16 17 3.45e-7
L7 16 17 5.82e-11
R7 16 17 1.02e-1
C8 17 18 9.31e-8
L8 17 18 8.68e-11
R8 17 18 1.43e-1
C9 18 port2 9.94e-13
L9 18 port2 3.93e-10
R9 18 port2 700
R100 port1 11 5.00e+9
.ENDS GRM3195C1H104GA05_DC0V_25degC