*----------------------------------------------------------------------
* SPICE Model generated by Murata Manufacturing Co., Ltd.
* Copyright(C) Murata Manufacturing Co., Ltd.
* Description :3216M(1206)/B/4.7uF/50V
* Murata P/N :GRM319B31H475KA12
* Property : C = 4.7[uF]
* Data Generated on Sep 6, 2018
*----------------------------------------------------------------------
* Applicable Conditions:
*   Frequency Range = 100Hz-6GHz
*   Temperature = 20 degC
*   DC Bias Voltage = 0V
*   Small Signal Operation
*----------------------------------------------------------------------
.SUBCKT GRM319B31H475KA12_DC0V_20degC port1 port2
C1 port1 11 3.50e-6
L2 11 12 7.63e-11
R3 12 13 6.06e-3
C4 13 14 1.03e-4
R4 13 14 58.8
C5 14 15 1.57e-4
R5 14 15 8.16
C6 15 16 1.47e-4
R6 15 16 1.48
C7 16 17 1.41e-4
R7 16 17 2.78e-1
C8 17 18 1.16e-4
R8 17 18 6.47e-2
C9 18 19 6.72e-5
R9 18 19 1.42e-2
L10 19 20 3.29e-11
R10 19 20 7.18e-2
L11 20 21 2.04e-10
R11 20 21 3.25e-2
C12 21 22 1.39e-5
L12 21 22 4.23e-11
R12 21 22 5.29e-3
C13 22 23 2.75e-6
L13 22 23 8.99e-11
R13 22 23 1.12e-2
C14 23 24 1.07e-11
L14 23 24 8.75e-11
R14 23 24 17.1
C15 24 port2 1.35e-12
L15 24 port2 2.74e-10
R15 24 port2 160
R100 port1 11 1.06e+7
.ENDS GRM319B31H475KA12_DC0V_20degC