Version 4
SHEET 1 880 680
WIRE -64 -208 -272 -208
WIRE 288 -208 208 -208
WIRE 352 -208 288 -208
WIRE -272 -176 -272 -208
WIRE 208 -176 208 -208
WIRE 352 -176 352 -208
WIRE -272 -64 -272 -96
WIRE 208 -64 208 -96
WIRE 352 -64 352 -96
WIRE -64 -48 -64 -208
WIRE 208 -32 208 -64
WIRE -128 0 -160 0
WIRE -304 64 -336 64
WIRE -272 64 -304 64
WIRE -160 64 -160 0
WIRE -160 64 -192 64
WIRE -64 64 -64 48
WIRE -16 64 -64 64
WIRE 96 64 64 64
WIRE 128 64 96 64
WIRE -336 80 -336 64
WIRE -64 80 -64 64
WIRE -160 128 -160 64
WIRE -128 128 -160 128
WIRE -336 176 -336 160
WIRE -64 208 -64 176
WIRE 208 224 208 96
FLAG 208 224 0
FLAG -336 176 0
FLAG 352 -64 0
FLAG 288 -208 vin
FLAG 208 -64 drain
FLAG 96 64 gate
FLAG -304 64 signal
FLAG -272 -64 0
FLAG -64 208 0
SYMBOL EPCGaN 128 64 R0
WINDOW 3 125 -29 Left 2
SYMATTR Value EPC2040
SYMATTR InstName U1
SYMBOL res 80 48 R90
WINDOW 0 0 56 VBottom 2
WINDOW 3 32 56 VTop 2
SYMATTR InstName RGate
SYMATTR Value 1
SYMBOL voltage -336 64 R0
WINDOW 3 -18 175 Left 1
WINDOW 123 0 0 Left 0
WINDOW 39 0 0 Left 0
SYMATTR Value PULSE(0 {signal_level} 0 {rise_nsec} {rise_nsec} 500n 1u)
SYMATTR InstName V1
SYMBOL res 192 -192 R0
SYMATTR InstName RLoad1
SYMATTR Value .5
SYMBOL voltage 352 -192 R0
WINDOW 123 0 0 Left 0
WINDOW 39 0 0 Left 0
SYMATTR InstName V2
SYMATTR Value 1
SYMBOL pnp -128 176 M180
WINDOW 0 70 7 Left 2
WINDOW 3 70 29 Left 2
SYMATTR InstName Q1
SYMATTR Value 2N2907
SYMBOL npn -128 -48 R0
WINDOW 0 63 20 Left 2
WINDOW 3 62 47 Left 2
SYMATTR InstName Q2
SYMATTR Value 2N2222
SYMBOL voltage -272 -192 R0
WINDOW 123 0 0 Left 0
WINDOW 39 0 0 Left 0
SYMATTR InstName V3
SYMATTR Value {signal_level}
SYMBOL res -176 48 R90
WINDOW 0 0 56 VBottom 2
WINDOW 3 32 56 VTop 2
SYMATTR InstName R1
SYMATTR Value 0.01
TEXT -344 -264 Left 2 !.tran 20n
TEXT -344 -392 Left 2 !.param rise_nsec=1n
TEXT -344 -360 Left 2 !.step param signal_level list 3.3 5
TEXT -344 -328 Left 2 !.meas TRAN peak_ILoad FIND I(Rload) AT 20n
TEXT -344 -296 Left 2 !.meas TRAN RT_load TRIG I(Rload)=0.18 TARG I(Rload)=1.62
