Version 4
SHEET 1 880 680
WIRE 416 -224 336 -224
WIRE 480 -224 416 -224
WIRE -64 -208 -272 -208
WIRE 336 -192 336 -224
WIRE 480 -192 480 -224
WIRE -272 -176 -272 -208
WIRE 336 -80 336 -112
WIRE 480 -80 480 -112
WIRE -272 -64 -272 -96
WIRE -64 -48 -64 -208
WIRE 336 -48 336 -80
WIRE -128 0 -160 0
WIRE -16 48 -64 48
WIRE 112 48 64 48
WIRE 128 48 112 48
WIRE 240 48 208 48
WIRE 256 48 240 48
WIRE -304 64 -336 64
WIRE -272 64 -304 64
WIRE -160 64 -160 0
WIRE -160 64 -192 64
WIRE -336 80 -336 64
WIRE 112 80 112 48
WIRE 112 80 -64 80
WIRE -160 128 -160 64
WIRE -128 128 -160 128
WIRE -336 176 -336 160
WIRE -64 208 -64 176
WIRE 336 208 336 80
FLAG 336 208 0
FLAG -336 176 0
FLAG 480 -80 0
FLAG 416 -224 vin
FLAG 336 -80 drain
FLAG 240 48 gate
FLAG -304 64 signal
FLAG -272 -64 0
FLAG -64 208 0
SYMBOL EPCGaN 256 48 R0
WINDOW 3 125 -29 Left 2
SYMATTR Value EPC2214
SYMATTR InstName U1
SYMBOL res 80 32 R90
WINDOW 0 -10 65 VBottom 2
WINDOW 3 -17 17 VTop 2
SYMATTR InstName RGate
SYMATTR Value 1
SYMBOL voltage -336 64 R0
WINDOW 3 -18 175 Left 1
WINDOW 123 0 0 Left 0
WINDOW 39 0 0 Left 0
SYMATTR Value PULSE(0 {signal_level} 0 {rise_nsec} {rise_nsec} 10n 20n)
SYMATTR InstName V1
SYMBOL res 320 -208 R0
SYMATTR InstName RLoad
SYMATTR Value .22
SYMBOL voltage 480 -208 R0
WINDOW 123 0 0 Left 0
WINDOW 39 0 0 Left 0
SYMATTR InstName V2
SYMATTR Value 1
SYMBOL pnp -128 176 M180
WINDOW 0 70 23 Left 2
WINDOW 3 64 54 Left 2
SYMATTR InstName Q1
SYMATTR Value 2N2907
SYMBOL npn -128 -48 R0
WINDOW 0 88 -12 Left 2
WINDOW 3 82 14 Left 2
SYMATTR InstName Q2
SYMATTR Value 2N2222
SYMBOL voltage -272 -192 R0
WINDOW 123 0 0 Left 0
WINDOW 39 0 0 Left 0
SYMATTR InstName V3
SYMATTR Value {signal_level}
SYMBOL res -176 48 R90
WINDOW 0 0 56 VBottom 2
WINDOW 3 32 56 VTop 2
SYMATTR InstName R1
SYMATTR Value 0.01
SYMBOL res 224 32 R90
WINDOW 0 0 56 VBottom 2
WINDOW 3 32 56 VTop 2
SYMATTR InstName Rg2
SYMATTR Value 0.01
TEXT -344 -256 Left 2 !.tran 20n
TEXT -344 -416 Left 2 !.param rise_nsec=1n
TEXT -344 -384 Left 2 !.step param signal_level list 3.3 5
TEXT -344 -352 Left 2 !.meas TRAN peak_ILoad FIND I(Rload) AT 20n
TEXT -344 -320 Left 2 !.meas TRAN RT_load TRIG I(Rload)=0.1*4 TARG I(Rload)=0.9*4
TEXT -344 -288 Left 2 !.meas TRAN RF_load TRIG I(Rload)=0.9*4 TD=8n TARG I(Rload)=0.1*4 TD=8n
