Version 4
SHEET 1 1284 1908
WIRE -16 64 -96 64
WIRE 32 64 -16 64
WIRE 176 64 96 64
WIRE -96 96 -96 64
WIRE 176 96 176 64
WIRE -96 208 -96 176
WIRE 176 208 176 176
WIRE -16 288 -16 64
WIRE 32 288 -16 288
WIRE 176 288 96 288
WIRE 176 320 176 288
WIRE 176 432 176 400
FLAG -96 208 0
FLAG 176 208 0
FLAG -96 64 in
FLAG 176 64 o_pn
FLAG 176 432 0
FLAG 176 288 o_sch
SYMBOL diode 32 80 R270
WINDOW 0 19 67 VTop 2
WINDOW 3 -7 32 VBottom 1
SYMATTR InstName D1
SYMATTR Value PNE20030EP
SYMATTR Prefix X
SYMBOL voltage -96 80 R0
WINDOW 3 12 102 Left 2
WINDOW 123 0 0 Left 0
WINDOW 39 0 0 Left 0
SYMATTR Value 5
SYMATTR InstName V1
SYMBOL current 176 96 R0
WINDOW 123 0 0 Left 0
WINDOW 39 0 0 Left 0
SYMATTR InstName I1
SYMATTR Value 1
SYMBOL schottky 32 304 R270
WINDOW 0 32 32 VTop 2
WINDOW 3 0 32 VBottom 1
SYMATTR InstName D2
SYMATTR Value PMEG045T150EPD
SYMATTR Prefix X
SYMBOL bi 176 320 R0
WINDOW 3 -96 80 Left 2
SYMATTR InstName B1
SYMATTR Value I=I(I1)
TEXT 256 32 Left 0 !***********************************************************\n*\n* PNE20030EP\n*\n* Nexperia\n*\n* 200V, 3A hyperfast recovery rectifier\n* IFmax = 3A\n* VRmax = 200V\n* VFmax = 0,98V   @ IF = 3A\n* IRmax = 1µA     @ VR = 200V\n* \n*\n*\n* Package pinning does not match Spice model pinning.\n* Package: CFP5 (SOD128)\n* \n* Package Pin 1: Cathode\n* Package Pin 2: Anode\n* \n*\n*\n* Extraction date (week/year): 18/2020\n* Simulator: SPICE3\n*\n***********************************************************\n*\n* The resistor R1 and the diode D2  \n* do not reflect physical devices.\n* Instead they improve modeling in the \n* forward and reverse mode of operation.\n*\n.SUBCKT PNE20030EP 1 2\nR1 1 2 2.5E+010\nD1 1 2\n+ DIODE1\nD2 1 2\n+ DIODE2\n*\n.MODEL DIODE1 D\n+ IS = 2E-012\n+ N = 0.92\n+ BV = 259\n+ IBV = 6.69E-008\n+ RS = 0.7\n+ CJO = 8.09E-011\n+ VJ = 0.4\n+ M = 0.38\n+ FC = 0.5\n+ TT = 0\n+ EG = 1.1\n+ XTI = 3\n.MODEL DIODE2 D\n+ IS = 5E-014\n+ N = 0.95\n+ RS = 0.04\n.ENDS\n*
TEXT -128 448 Left 2 !.dc I1 0.05 3 0.05
TEXT -120 16 Left 0 ;Device mounted on an FR4 PCB, single-sided copper, tin-plated and standard footprint.
TEXT -120 -8 Left 1 ;Ambient Temperature: 25 deg
TEXT 632 24 Left 0 !*\n*******************************************\n*\n*PMEG045T150EPD\n*\n*NXP Semiconductors\n*\n*45V, 15A low VF Trench MEGA Schottky barrier rectifier\n*\n*\n*VRmax     = 45V \n*\n*IFmax(AV) = 15A \n*VF        = 430mV @ IF = 15A\n*IR        = 420µA @ VR = 45V\n*\n*\n*\n*\n*\n*\n*\n*\n*\n*Package pinning does not match Spice model pinning.\n*Package: SOT1289 (CFP15)\n*\n*Package Pin 1: Cathode \n*Package Pin 2: Anode \n* \n*\n*\n*Extraction date (week/year): 51/2015\n*Simulator: SPICE3\n*\n*******************************************\n*#\n.SUBCKT PMEG045T150EPD 1 2\nR1 1 2 1.2E+006\nD1 1 2\n+ DIODE1\nD2 1 2\n+ DIODE2\n*\n*The resistor R1 and the diode D2 do not reflect \n*physical devices but improve \n*only modeling in the reverse \n*mode of operation.\n*\n.MODEL DIODE1 D\n+ IS = 4E-006\n+ N = 1\n+ BV = 63.5\n+ IBV = 0.027\n+ RS = 0.004\n+ CJO = 3.38E-009\n+ VJ = 1.15\n+ M = 0.66\n+ FC = 0\n+ TT = 0\n+ EG = 0.69\n+ XTI = 2\n.MODEL DIODE2 D\n+ IS = 5E-012\n+ N = 1\n+ RS = 1.2\n.ENDS\n*
