Version 4
SHEET 1 880 680
WIRE 320 -64 288 -64
WIRE 448 -64 400 -64
WIRE 32 16 32 -16
WIRE 352 48 352 32
WIRE 160 64 144 64
WIRE 176 64 160 64
WIRE 288 64 288 -64
WIRE 288 64 256 64
WIRE 320 64 288 64
WIRE 448 80 448 -64
WIRE 448 80 384 80
WIRE 496 80 448 80
WIRE 512 80 496 80
WIRE 320 96 304 96
WIRE 32 112 32 96
WIRE 32 112 -32 112
WIRE 144 112 144 64
WIRE 32 128 32 112
WIRE 304 128 304 96
WIRE 352 128 352 112
WIRE -32 144 -32 112
WIRE 144 224 144 192
WIRE 32 240 32 208
FLAG -32 144 0
FLAG 32 -16 vcc
FLAG 32 240 vee
FLAG 144 224 0
FLAG 160 64 in
FLAG 352 128 vee
FLAG 352 32 vcc
FLAG 496 80 out
FLAG 304 128 0
SYMBOL OpAmps\\OP07 352 16 R0
SYMATTR InstName U1
SYMBOL voltage 32 0 R0
WINDOW 3 24 85 Left 2
WINDOW 123 0 0 Left 0
WINDOW 39 0 0 Left 0
SYMATTR Value +18
SYMATTR InstName V1
SYMBOL voltage 32 112 R0
WINDOW 3 19 88 Left 2
WINDOW 123 0 0 Left 0
WINDOW 39 0 0 Left 0
SYMATTR Value +18
SYMATTR InstName V2
SYMBOL voltage 144 96 R0
WINDOW 0 43 66 Left 2
WINDOW 3 20 91 Left 2
WINDOW 123 26 102 Left 2
WINDOW 39 0 0 Left 0
SYMATTR InstName V3
SYMATTR Value ""
SYMATTR Value2 AC 1
SYMBOL res 416 -80 R90
WINDOW 0 0 56 VBottom 2
WINDOW 3 32 45 VTop 2
SYMATTR InstName Rf1
SYMATTR Value {fb_val}
SYMBOL res 272 48 R90
WINDOW 0 0 56 VBottom 2
WINDOW 3 32 56 VTop 2
SYMATTR InstName R1
SYMATTR Value {r1_val}
TEXT 176 240 Left 2 !.param fb_val=2k r1_val=1k
TEXT 176 272 Left 2 !.ac dec 100 1 1meg
TEXT 560 -48 Left 2 ;BW = 600 KHz
