Version 4
SHEET 1 880 680
WIRE -16 64 -80 64
WIRE 48 64 -16 64
WIRE 384 64 304 64
WIRE 448 64 384 64
WIRE 512 64 448 64
WIRE 512 96 512 64
WIRE -16 112 -16 64
WIRE 384 112 384 64
WIRE -16 224 -16 176
WIRE 176 224 176 160
WIRE 176 224 -16 224
WIRE 384 224 384 176
WIRE 384 224 176 224
WIRE 512 224 512 176
WIRE 512 224 384 224
WIRE -16 256 -16 224
WIRE -80 368 -80 64
WIRE -32 368 -80 368
WIRE 16 368 -32 368
WIRE 160 368 96 368
WIRE 224 368 160 368
WIRE 272 368 224 368
WIRE 272 400 272 368
WIRE -80 416 -80 368
WIRE 160 416 160 368
WIRE -80 528 -80 496
WIRE 160 528 160 480
WIRE 160 528 -80 528
WIRE 272 528 272 480
WIRE 272 528 160 528
WIRE -80 544 -80 528
FLAG -80 544 0
FLAG -32 368 in
FLAG 448 64 out1
FLAG -16 256 0
FLAG 224 368 out2
SYMBOL res 112 352 R90
WINDOW 0 0 56 VBottom 2
WINDOW 3 32 56 VTop 2
SYMATTR InstName R1
SYMATTR Value 100
SYMBOL voltage -80 400 R0
WINDOW 123 0 0 Left 0
WINDOW 39 0 0 Left 0
SYMATTR InstName V1
SYMATTR Value 10V
SYMBOL zener 176 480 R180
WINDOW 0 24 64 Left 2
WINDOW 3 24 0 Left 2
SYMATTR InstName D1
SYMATTR Value UMZ5_1N
SYMBOL PowerProducts\\LT1117-5 176 64 R0
SYMATTR InstName U1
SYMBOL cap -32 112 R0
SYMATTR InstName C1
SYMATTR Value 47µ
SYMATTR SpiceLine V=16 Irms=2.2 Rser=0.0211 Lser=3.091n mfg="Würth Elektronik" pn="875105344006 WCAP-PSLP 6,3 x 5,8" type="Al polymer"
SYMBOL cap 368 112 R0
SYMATTR InstName C2
SYMATTR Value 47µ
SYMATTR SpiceLine V=16 Irms=2.2 Rser=0.0211 Lser=3.091n mfg="Würth Elektronik" pn="875105344006 WCAP-PSLP 6,3 x 5,8" type="Al polymer"
SYMBOL current 272 400 R0
WINDOW 123 0 0 Left 0
WINDOW 39 0 0 Left 0
SYMATTR InstName I1
SYMATTR Value 0.01
SYMBOL current 512 96 R0
WINDOW 123 0 0 Left 0
WINDOW 39 0 0 Left 0
SYMATTR InstName I2
SYMATTR Value 0.01
TEXT -64 -64 Left 2 !.dc I1 10m 100m 1m
