Version 4
SHEET 1 880 680
WIRE -32 -208 -96 -208
WIRE 32 -208 -32 -208
WIRE 368 -208 288 -208
WIRE 432 -208 368 -208
WIRE 496 -208 432 -208
WIRE 496 -176 496 -208
WIRE -32 -160 -32 -208
WIRE 368 -160 368 -208
WIRE -32 -48 -32 -96
WIRE 160 -48 160 -112
WIRE 160 -48 -32 -48
WIRE 368 -48 368 -96
WIRE 368 -48 160 -48
WIRE 496 -48 496 -96
WIRE 496 -48 368 -48
WIRE -32 -16 -32 -48
WIRE -96 96 -96 -208
WIRE -48 96 -96 96
WIRE 0 96 -48 96
WIRE 144 96 80 96
WIRE 176 96 144 96
WIRE 256 96 176 96
WIRE 256 128 256 96
WIRE -96 144 -96 96
WIRE 144 144 144 96
WIRE -96 256 -96 224
WIRE 144 256 144 208
WIRE 144 256 -96 256
WIRE 256 256 256 208
WIRE 256 256 144 256
WIRE -96 272 -96 256
FLAG -96 272 0
FLAG -48 96 in
FLAG 176 96 out1
FLAG -32 -16 0
FLAG 432 -208 out2
SYMBOL res 96 80 R90
WINDOW 0 0 56 VBottom 2
WINDOW 3 32 56 VTop 2
SYMATTR InstName R1
SYMATTR Value 100
SYMBOL voltage -96 128 R0
WINDOW 123 0 0 Left 0
WINDOW 39 0 0 Left 0
SYMATTR InstName V1
SYMATTR Value 10V
SYMBOL zener 160 208 R180
WINDOW 0 24 64 Left 2
WINDOW 3 24 0 Left 2
SYMATTR InstName D1
SYMATTR Value UMZ5_1N
SYMBOL res 240 112 R0
SYMATTR InstName R2
SYMATTR Value {load}
SYMBOL PowerProducts\\LT1117-5 160 -208 R0
SYMATTR InstName U1
SYMBOL cap -48 -160 R0
SYMATTR InstName C1
SYMATTR Value 47µ
SYMATTR SpiceLine V=16 Irms=2.2 Rser=0.0211 Lser=3.091n mfg="Würth Elektronik" pn="875105344006 WCAP-PSLP 6,3 x 5,8" type="Al polymer"
SYMBOL cap 352 -160 R0
SYMATTR InstName C2
SYMATTR Value 47µ
SYMATTR SpiceLine V=16 Irms=2.2 Rser=0.0211 Lser=3.091n mfg="Würth Elektronik" pn="875105344006 WCAP-PSLP 6,3 x 5,8" type="Al polymer"
SYMBOL res 480 -192 R0
SYMATTR InstName R3
SYMATTR Value {load}
TEXT -112 312 Left 2 !.step param load list 50 100 200
TEXT -112 344 Left 2 !.tran 1m
