Version 4
SHEET 1 880 680
WIRE 16 -64 -80 -64
WIRE 64 -64 16 -64
WIRE 208 -64 144 -64
WIRE 272 -64 240 -64
WIRE 384 -64 352 -64
WIRE -208 16 -208 -16
WIRE 288 48 288 32
WIRE 32 64 16 64
WIRE 64 64 32 64
WIRE 208 64 208 -64
WIRE 208 64 144 64
WIRE 240 64 240 -64
WIRE 240 64 208 64
WIRE 256 64 240 64
WIRE 384 80 384 -64
WIRE 384 80 320 80
WIRE 432 80 384 80
WIRE 448 80 432 80
WIRE 256 96 240 96
WIRE -208 112 -208 96
WIRE -208 112 -272 112
WIRE -80 112 -80 -64
WIRE 16 112 16 64
WIRE -208 128 -208 112
WIRE 240 128 240 96
WIRE 288 128 288 112
WIRE -272 144 -272 112
WIRE -80 224 -80 192
WIRE 16 224 16 192
WIRE -208 240 -208 208
FLAG -272 144 0
FLAG -208 -16 vcc
FLAG -208 240 vee
FLAG 16 224 0
FLAG 32 64 in1
FLAG 288 128 vee
FLAG 288 32 vcc
FLAG 432 80 out
FLAG 240 128 0
FLAG -80 224 0
FLAG 16 -64 in2
DATAFLAG 208 -32 ""
DATAFLAG 384 -32 ""
SYMBOL OpAmps\\OP07 288 16 R0
SYMATTR InstName U1
SYMBOL voltage -208 0 R0
WINDOW 3 24 85 Left 2
WINDOW 123 0 0 Left 0
WINDOW 39 0 0 Left 0
SYMATTR Value +18
SYMATTR InstName V1
SYMBOL voltage -208 112 R0
WINDOW 3 19 88 Left 2
WINDOW 123 0 0 Left 0
WINDOW 39 0 0 Left 0
SYMATTR Value +18
SYMATTR InstName V2
SYMBOL res 368 -80 R90
WINDOW 0 0 56 VBottom 2
WINDOW 3 32 68 VTop 2
SYMATTR InstName Rf
SYMATTR Value {fb_val}
SYMBOL res 160 48 R90
WINDOW 0 0 56 VBottom 2
WINDOW 3 32 56 VTop 2
SYMATTR InstName R1
SYMATTR Value {r1_val}
SYMBOL res 160 -80 R90
WINDOW 0 0 56 VBottom 2
WINDOW 3 32 56 VTop 2
SYMATTR InstName R2
SYMATTR Value {r1_val}
SYMBOL voltage 16 96 R0
WINDOW 0 40 62 Left 2
WINDOW 123 0 0 Left 0
WINDOW 39 0 0 Left 0
SYMATTR InstName V3
SYMATTR Value 1
SYMBOL voltage -80 96 R0
WINDOW 123 0 0 Left 0
WINDOW 39 0 0 Left 0
SYMATTR InstName V4
SYMATTR Value 2
TEXT 112 240 Left 2 !.param fb_val=1k r1_val=1k
TEXT 112 272 Left 2 !.op
