Version 4
SHEET 1 880 680
WIRE 304 -48 160 -48
WIRE 384 -48 304 -48
WIRE 432 -48 384 -48
WIRE 432 16 432 -48
WIRE 160 64 160 -48
WIRE 304 128 304 -48
WIRE 160 176 160 144
WIRE 208 176 160 176
WIRE 240 176 208 176
WIRE 160 208 160 176
WIRE 304 272 304 224
WIRE 160 320 160 288
WIRE -64 368 -96 368
WIRE -32 368 -64 368
WIRE 96 368 48 368
WIRE -96 400 -96 368
WIRE 304 432 304 352
WIRE 432 432 432 96
WIRE 432 432 304 432
WIRE -96 512 -96 480
WIRE 160 512 160 416
WIRE 160 512 -96 512
WIRE 304 512 304 432
WIRE 304 512 160 512
WIRE 304 544 304 512
FLAG 304 544 0
FLAG -64 368 pulse
FLAG 208 176 base
FLAG 384 -48 vin
SYMBOL pnp 240 224 M180
WINDOW 0 41 34 Left 2
WINDOW 3 60 68 Left 2
SYMATTR InstName Q1
SYMATTR Value 2SAR542F3
SYMBOL voltage 432 0 R0
WINDOW 123 0 0 Left 0
WINDOW 39 0 0 Left 0
SYMATTR InstName V1
SYMATTR Value 5
SYMBOL npn 96 320 R0
SYMATTR InstName Q2
SYMATTR Value BC847B
SYMBOL res 144 192 R0
SYMATTR InstName R1
SYMATTR Value 3k9
SYMBOL res 64 352 R90
WINDOW 0 0 56 VBottom 2
WINDOW 3 32 56 VTop 2
SYMATTR InstName R2
SYMATTR Value 1k
SYMBOL res 176 160 R180
WINDOW 0 36 76 Left 2
WINDOW 3 36 40 Left 2
SYMATTR InstName R3
SYMATTR Value 100k
SYMBOL voltage -96 384 R0
WINDOW 3 24 96 Left 1
WINDOW 123 0 0 Left 0
WINDOW 39 0 0 Left 0
SYMATTR InstName V2
SYMATTR Value PULSE(5 0 0 10n 10n 1m 2m)
SYMBOL res 288 256 R0
SYMATTR InstName R4
SYMATTR Value 1
TEXT -128 568 Left 2 !.tran 4m
