Version 4
SHEET 1 880 680
WIRE 240 32 128 32
WIRE 304 32 240 32
WIRE 384 32 304 32
WIRE 464 32 384 32
WIRE 544 32 464 32
WIRE 624 32 544 32
WIRE 128 64 128 32
WIRE 304 64 304 32
WIRE 384 64 384 32
WIRE 464 64 464 32
WIRE 544 64 544 32
WIRE 624 64 624 32
WIRE 128 176 128 144
WIRE 304 176 304 144
WIRE 384 176 384 144
WIRE 384 176 304 176
WIRE 464 176 464 144
WIRE 464 176 384 176
WIRE 544 176 544 144
WIRE 544 176 464 176
WIRE 624 176 624 144
WIRE 624 176 544 176
WIRE 304 192 304 176
WIRE 304 208 304 192
WIRE 48 288 16 288
WIRE 80 288 48 288
WIRE 192 288 160 288
WIRE 224 288 192 288
WIRE 256 288 224 288
WIRE 16 320 16 288
WIRE 192 320 192 288
WIRE 16 432 16 400
WIRE 192 432 192 400
WIRE 192 432 16 432
WIRE 304 432 304 304
WIRE 304 432 192 432
WIRE 304 464 304 432
FLAG 304 464 0
FLAG 128 176 0
FLAG 48 288 signal
FLAG 224 288 gate
FLAG 304 192 drain
FLAG 240 32 vin
SYMBOL voltage 128 48 R0
WINDOW 123 0 0 Left 0
WINDOW 39 0 0 Left 0
SYMATTR InstName V1
SYMATTR Value 5.6
SYMBOL res 288 48 R0
SYMATTR InstName R3
SYMATTR Value 56
SYMATTR SpiceLine tol=5 pwr=1
SYMBOL nmos 256 208 R0
SYMATTR InstName M1
SYMATTR Value IRLML6346
SYMBOL res 176 304 R0
SYMATTR InstName R2
SYMATTR Value 10k
SYMBOL res 176 272 R90
WINDOW 0 0 56 VBottom 2
WINDOW 3 32 56 VTop 2
SYMATTR InstName R1
SYMATTR Value 330R
SYMBOL voltage 16 304 R0
WINDOW 3 9 98 Left 0
WINDOW 123 0 0 Left 0
WINDOW 39 0 0 Left 0
SYMATTR Value PULSE(0 5 0 10n 10n 1m 2m)
SYMATTR InstName V2
SYMBOL res 368 48 R0
SYMATTR InstName R4
SYMATTR Value 56
SYMATTR SpiceLine tol=5 pwr=1
SYMBOL res 448 48 R0
SYMATTR InstName R5
SYMATTR Value 56
SYMATTR SpiceLine tol=5 pwr=1
SYMBOL res 528 48 R0
SYMATTR InstName R6
SYMATTR Value 56
SYMATTR SpiceLine tol=5 pwr=1
SYMBOL res 608 48 R0
SYMATTR InstName R7
SYMATTR Value 56
SYMATTR SpiceLine tol=5 pwr=1
TEXT 8 456 Left 2 !.tran 5m
