Version 4
SHEET 1 880 680
WIRE 160 160 112 160
WIRE 176 160 160 160
WIRE 208 160 176 160
WIRE 320 160 288 160
WIRE 176 192 176 160
WIRE 112 208 112 160
WIRE 112 304 112 288
WIRE 176 304 176 272
WIRE 176 304 112 304
WIRE 320 304 320 160
WIRE 320 304 176 304
WIRE 112 336 112 304
FLAG 112 336 0
FLAG 160 160 current
SYMBOL current 112 288 R180
WINDOW 0 24 80 Left 2
WINDOW 3 58 0 Right 1
WINDOW 123 0 0 Left 0
WINDOW 39 0 0 Left 0
SYMATTR InstName I1
SYMATTR Value {Iin}
SYMBOL ZZZ\\FUSE\\fuse2 240 160 R180
SYMATTR InstName U1
SYMATTR SpiceModel F4A
SYMBOL res 160 176 R0
SYMATTR InstName R1
SYMATTR Value 1Meg
TEXT 40 400 Left 2 !.tran 100 uic
TEXT 40 432 Left 2 ;.dc I1 100m 10 100m
TEXT 40 368 Left 2 !.step param Iin 2 10 0.5
