Version 4
SHEET 1 880 680
WIRE 64 16 16 16
WIRE 144 16 64 16
WIRE 144 32 144 16
WIRE 16 64 16 16
WIRE 144 128 144 112
WIRE 224 128 144 128
WIRE 256 128 224 128
WIRE 144 144 144 128
WIRE 16 176 16 144
WIRE 144 256 144 224
FLAG 144 256 0
FLAG 16 176 0
FLAG 224 128 out
FLAG 64 16 in
SYMBOL res 128 16 R0
WINDOW 0 38 24 Left 2
WINDOW 3 36 51 Left 2
SYMATTR InstName R1
SYMATTR Value {mc(1K,tolerance/100)}
SYMBOL voltage 16 48 R0
WINDOW 123 0 0 Left 0
WINDOW 39 0 0 Left 0
SYMATTR InstName V1
SYMATTR Value 5
SYMBOL res 128 128 R0
WINDOW 0 38 24 Left 2
WINDOW 3 36 51 Left 2
SYMATTR InstName R2
SYMATTR Value {mc(1m,tolerance/100)}
TEXT 0 -40 Left 2 !.param tolerance=0.1
TEXT 248 -40 Left 2 ;%
TEXT 0 376 Left 2 !.tran 1m
TEXT 0 312 Left 2 !.step param x 0 500 1
TEXT 0 344 Left 2 !.meas vout_avg avg V(out)
